
---------- Begin Simulation Statistics ----------
final_tick                               33949501864500                       # Number of ticks from beginning of simulation (restored from checkpoints and never reset)
host_inst_rate                                 189625                       # Simulator instruction rate (inst/s)
host_mem_usage                                4439684                       # Number of bytes of host memory used
host_op_rate                                   291996                       # Simulator op (including micro ops) rate (op/s)
host_seconds                                  1518.94                       # Real time elapsed on the host
host_tick_rate                            22350794847                       # Simulator tick rate (ticks/s)
sim_freq                                 1000000000000                       # Frequency of simulated ticks
sim_insts                                   288028618                       # Number of instructions simulated
sim_ops                                     443523577                       # Number of ops (including micro ops) simulated
sim_seconds                                 33.949502                       # Number of seconds simulated
sim_ticks                                33949501864500                       # Number of ticks simulated
system.cpu.Branches                          23339015                       # Number of branches fetched
system.cpu.committedInsts                   288028618                       # Number of instructions committed
system.cpu.committedOps                     443523577                       # Number of ops (including micro ops) committed
system.cpu.dtb.rdAccesses                   136485199                       # TLB accesses on read requests
system.cpu.dtb.rdMisses                         20452                       # TLB misses on read requests
system.cpu.dtb.wrAccesses                    63168473                       # TLB accesses on write requests
system.cpu.dtb.wrMisses                            59                       # TLB misses on write requests
system.cpu.idle_fraction                     0.000000                       # Percentage of idle cycles
system.cpu.itb.rdAccesses                           0                       # TLB accesses on read requests
system.cpu.itb.rdMisses                             0                       # TLB misses on read requests
system.cpu.itb.wrAccesses                   352705874                       # TLB accesses on write requests
system.cpu.itb.wrMisses                           260                       # TLB misses on write requests
system.cpu.not_idle_fraction                 1.000000                       # Percentage of non-idle cycles
system.cpu.numCycles                      67899003729                       # number of cpu cycles simulated
system.cpu.numWorkItemsCompleted                    0                       # number of work items this cpu completed
system.cpu.numWorkItemsStarted                      0                       # number of work items this cpu started
system.cpu.num_busy_cycles               67899003728.998001                       # Number of busy cycles
system.cpu.num_cc_register_reads             74182969                       # number of times the CC registers were read
system.cpu.num_cc_register_writes           175748153                       # number of times the CC registers were written
system.cpu.num_conditional_control_insts     12302383                       # number of instructions that are conditional controls
system.cpu.num_fp_alu_accesses                  74093                       # Number of float alu accesses
system.cpu.num_fp_insts                         74093                       # number of float instructions
system.cpu.num_fp_register_reads               102001                       # number of times the floating registers were read
system.cpu.num_fp_register_writes               54234                       # number of times the floating registers were written
system.cpu.num_func_calls                       18276                       # number of times a function call or return occured
system.cpu.num_idle_cycles                   0.001998                       # Number of idle cycles
system.cpu.num_int_alu_accesses             443469515                       # Number of integer alu accesses
system.cpu.num_int_insts                    443469515                       # number of integer instructions
system.cpu.num_int_register_reads          1046947593                       # number of times the integer registers were read
system.cpu.num_int_register_writes          357022123                       # number of times the integer registers were written
system.cpu.num_load_insts                   136485169                       # Number of load instructions
system.cpu.num_mem_refs                     199653632                       # number of memory refs
system.cpu.num_store_insts                   63168463                       # Number of store instructions
system.cpu.num_vec_alu_accesses                     0                       # Number of vector alu accesses
system.cpu.num_vec_insts                            0                       # number of vector instructions
system.cpu.num_vec_register_reads                   0                       # number of times the vector registers were read
system.cpu.num_vec_register_writes                  0                       # number of times the vector registers were written
system.cpu.op_class::No_OpClass                 19657      0.00%      0.00% # Class of executed instruction
system.cpu.op_class::IntAlu                 243773853     54.96%     54.97% # Class of executed instruction
system.cpu.op_class::IntMult                       38      0.00%     54.97% # Class of executed instruction
system.cpu.op_class::IntDiv                     34807      0.01%     54.98% # Class of executed instruction
system.cpu.op_class::FloatAdd                    2888      0.00%     54.98% # Class of executed instruction
system.cpu.op_class::FloatCmp                       0      0.00%     54.98% # Class of executed instruction
system.cpu.op_class::FloatCvt                    1328      0.00%     54.98% # Class of executed instruction
system.cpu.op_class::FloatMult                      0      0.00%     54.98% # Class of executed instruction
system.cpu.op_class::FloatMultAcc                   0      0.00%     54.98% # Class of executed instruction
system.cpu.op_class::FloatDiv                       0      0.00%     54.98% # Class of executed instruction
system.cpu.op_class::FloatMisc                      0      0.00%     54.98% # Class of executed instruction
system.cpu.op_class::FloatSqrt                      0      0.00%     54.98% # Class of executed instruction
system.cpu.op_class::SimdAdd                     6204      0.00%     54.98% # Class of executed instruction
system.cpu.op_class::SimdAddAcc                     0      0.00%     54.98% # Class of executed instruction
system.cpu.op_class::SimdAlu                    11267      0.00%     54.98% # Class of executed instruction
system.cpu.op_class::SimdCmp                        0      0.00%     54.98% # Class of executed instruction
system.cpu.op_class::SimdCvt                    12126      0.00%     54.98% # Class of executed instruction
system.cpu.op_class::SimdMisc                    6578      0.00%     54.98% # Class of executed instruction
system.cpu.op_class::SimdMult                       0      0.00%     54.98% # Class of executed instruction
system.cpu.op_class::SimdMultAcc                    0      0.00%     54.98% # Class of executed instruction
system.cpu.op_class::SimdShift                   1199      0.00%     54.98% # Class of executed instruction
system.cpu.op_class::SimdShiftAcc                   0      0.00%     54.98% # Class of executed instruction
system.cpu.op_class::SimdDiv                        0      0.00%     54.98% # Class of executed instruction
system.cpu.op_class::SimdSqrt                       0      0.00%     54.98% # Class of executed instruction
system.cpu.op_class::SimdFloatAdd                   0      0.00%     54.98% # Class of executed instruction
system.cpu.op_class::SimdFloatAlu                   0      0.00%     54.98% # Class of executed instruction
system.cpu.op_class::SimdFloatCmp                   0      0.00%     54.98% # Class of executed instruction
system.cpu.op_class::SimdFloatCvt                   0      0.00%     54.98% # Class of executed instruction
system.cpu.op_class::SimdFloatDiv                   0      0.00%     54.98% # Class of executed instruction
system.cpu.op_class::SimdFloatMisc                  0      0.00%     54.98% # Class of executed instruction
system.cpu.op_class::SimdFloatMult                  0      0.00%     54.98% # Class of executed instruction
system.cpu.op_class::SimdFloatMultAcc               0      0.00%     54.98% # Class of executed instruction
system.cpu.op_class::SimdFloatSqrt                  0      0.00%     54.98% # Class of executed instruction
system.cpu.op_class::SimdReduceAdd                  0      0.00%     54.98% # Class of executed instruction
system.cpu.op_class::SimdReduceAlu                  0      0.00%     54.98% # Class of executed instruction
system.cpu.op_class::SimdReduceCmp                  0      0.00%     54.98% # Class of executed instruction
system.cpu.op_class::SimdFloatReduceAdd             0      0.00%     54.98% # Class of executed instruction
system.cpu.op_class::SimdFloatReduceCmp             0      0.00%     54.98% # Class of executed instruction
system.cpu.op_class::SimdAes                        0      0.00%     54.98% # Class of executed instruction
system.cpu.op_class::SimdAesMix                     0      0.00%     54.98% # Class of executed instruction
system.cpu.op_class::SimdSha1Hash                   0      0.00%     54.98% # Class of executed instruction
system.cpu.op_class::SimdSha1Hash2                  0      0.00%     54.98% # Class of executed instruction
system.cpu.op_class::SimdSha256Hash                 0      0.00%     54.98% # Class of executed instruction
system.cpu.op_class::SimdSha256Hash2                0      0.00%     54.98% # Class of executed instruction
system.cpu.op_class::SimdShaSigma2                  0      0.00%     54.98% # Class of executed instruction
system.cpu.op_class::SimdShaSigma3                  0      0.00%     54.98% # Class of executed instruction
system.cpu.op_class::SimdPredAlu                    0      0.00%     54.98% # Class of executed instruction
system.cpu.op_class::MemRead                136465747     30.77%     85.75% # Class of executed instruction
system.cpu.op_class::MemWrite                63156134     14.24%     99.99% # Class of executed instruction
system.cpu.op_class::FloatMemRead               19422      0.00%    100.00% # Class of executed instruction
system.cpu.op_class::FloatMemWrite              12329      0.00%    100.00% # Class of executed instruction
system.cpu.op_class::IprAccess                      0      0.00%    100.00% # Class of executed instruction
system.cpu.op_class::InstPrefetch                   0      0.00%    100.00% # Class of executed instruction
system.cpu.op_class::total                  443523577                       # Class of executed instruction
system.cpu.workload.numSyscalls                    60                       # Number of system calls
system.membus.pwrStateResidencyTicks::UNDEFINED 33949501864500                       # Cumulative time (in ticks) in various power states
system.membus.trans_dist::ReadReq           489191073                       # Transaction distribution
system.membus.trans_dist::ReadResp          489191073                       # Transaction distribution
system.membus.trans_dist::WriteReq           63168473                       # Transaction distribution
system.membus.trans_dist::WriteResp          63168473                       # Transaction distribution
system.membus.pkt_count_system.cpu.icache_port::system.hmc_host.seriallink0.slave    705411748                       # Packet count per connected master and slave (bytes)
system.membus.pkt_count_system.cpu.icache_port::total    705411748                       # Packet count per connected master and slave (bytes)
system.membus.pkt_count_system.cpu.dcache_port::system.hmc_host.seriallink0.slave    375307344                       # Packet count per connected master and slave (bytes)
system.membus.pkt_count_system.cpu.dcache_port::system.hmc_host.seriallink1.slave     16000000                       # Packet count per connected master and slave (bytes)
system.membus.pkt_count_system.cpu.dcache_port::system.hmc_host.seriallink2.slave      8000000                       # Packet count per connected master and slave (bytes)
system.membus.pkt_count_system.cpu.dcache_port::total    399307344                       # Packet count per connected master and slave (bytes)
system.membus.pkt_count::total             1104719092                       # Packet count per connected master and slave (bytes)
system.membus.pkt_size_system.cpu.icache_port::system.hmc_host.seriallink0.slave   2821646992                       # Cumulative packet size per connected master and slave (bytes)
system.membus.pkt_size_system.cpu.icache_port::total   2821646992                       # Cumulative packet size per connected master and slave (bytes)
system.membus.pkt_size_system.cpu.dcache_port::system.hmc_host.seriallink0.slave   1023863005                       # Cumulative packet size per connected master and slave (bytes)
system.membus.pkt_size_system.cpu.dcache_port::system.hmc_host.seriallink1.slave     64000000                       # Cumulative packet size per connected master and slave (bytes)
system.membus.pkt_size_system.cpu.dcache_port::system.hmc_host.seriallink2.slave     32000000                       # Cumulative packet size per connected master and slave (bytes)
system.membus.pkt_size_system.cpu.dcache_port::total   1119863005                       # Cumulative packet size per connected master and slave (bytes)
system.membus.pkt_size::total              3941509997                       # Cumulative packet size per connected master and slave (bytes)
system.membus.reqLayer0.occupancy          5975280190                       # Layer occupancy (ticks)
system.membus.reqLayer0.utilization               0.0                       # Layer utilization (%)
system.membus.badaddr_responder.pwrStateResidencyTicks::UNDEFINED 33949501864500                       # Cumulative time (in ticks) in various power states
system.membus.reqLayer2.occupancy            60000000                       # Layer occupancy (ticks)
system.membus.reqLayer2.utilization               0.0                       # Layer utilization (%)
system.membus.respLayer1.occupancy         7054117480                       # Layer occupancy (ticks)
system.membus.respLayer1.utilization              0.0                       # Layer utilization (%)
system.membus.clk_domain.clock                     10                       # Clock period in ticks
system.membus.clk_domain.voltage_domain.voltage            1                       # Voltage in Volts
system.membus.respLayer2.occupancy         3361388710                       # Layer occupancy (ticks)
system.membus.respLayer2.utilization              0.0                       # Layer utilization (%)
system.membus.reqLayer1.occupancy           120000000                       # Layer occupancy (ticks)
system.membus.reqLayer1.utilization               0.0                       # Layer utilization (%)
system.voltage_domain.voltage                       1                       # Voltage in Volts
system.clk_domain.clock                          1000                       # Clock period in ticks
system.hmc_dev.buffers53.pwrStateResidencyTicks::UNDEFINED 33949501864500                       # Cumulative time (in ticks) in various power states
system.hmc_dev.buffers52.pwrStateResidencyTicks::UNDEFINED 33949501864500                       # Cumulative time (in ticks) in various power states
system.hmc_dev.buffers51.pwrStateResidencyTicks::UNDEFINED 33949501864500                       # Cumulative time (in ticks) in various power states
system.hmc_dev.buffers50.pwrStateResidencyTicks::UNDEFINED 33949501864500                       # Cumulative time (in ticks) in various power states
system.hmc_dev.buffers57.pwrStateResidencyTicks::UNDEFINED 33949501864500                       # Cumulative time (in ticks) in various power states
system.hmc_dev.buffers56.pwrStateResidencyTicks::UNDEFINED 33949501864500                       # Cumulative time (in ticks) in various power states
system.hmc_dev.buffers55.pwrStateResidencyTicks::UNDEFINED 33949501864500                       # Cumulative time (in ticks) in various power states
system.hmc_dev.buffers54.pwrStateResidencyTicks::UNDEFINED 33949501864500                       # Cumulative time (in ticks) in various power states
system.hmc_dev.buffers59.pwrStateResidencyTicks::UNDEFINED 33949501864500                       # Cumulative time (in ticks) in various power states
system.hmc_dev.buffers58.pwrStateResidencyTicks::UNDEFINED 33949501864500                       # Cumulative time (in ticks) in various power states
system.hmc_dev.buffers219.pwrStateResidencyTicks::UNDEFINED 33949501864500                       # Cumulative time (in ticks) in various power states
system.hmc_dev.buffers159.pwrStateResidencyTicks::UNDEFINED 33949501864500                       # Cumulative time (in ticks) in various power states
system.hmc_dev.buffers158.pwrStateResidencyTicks::UNDEFINED 33949501864500                       # Cumulative time (in ticks) in various power states
system.hmc_dev.buffers153.pwrStateResidencyTicks::UNDEFINED 33949501864500                       # Cumulative time (in ticks) in various power states
system.hmc_dev.buffers152.pwrStateResidencyTicks::UNDEFINED 33949501864500                       # Cumulative time (in ticks) in various power states
system.hmc_dev.buffers151.pwrStateResidencyTicks::UNDEFINED 33949501864500                       # Cumulative time (in ticks) in various power states
system.hmc_dev.buffers150.pwrStateResidencyTicks::UNDEFINED 33949501864500                       # Cumulative time (in ticks) in various power states
system.hmc_dev.buffers157.pwrStateResidencyTicks::UNDEFINED 33949501864500                       # Cumulative time (in ticks) in various power states
system.hmc_dev.buffers156.pwrStateResidencyTicks::UNDEFINED 33949501864500                       # Cumulative time (in ticks) in various power states
system.hmc_dev.buffers155.pwrStateResidencyTicks::UNDEFINED 33949501864500                       # Cumulative time (in ticks) in various power states
system.hmc_dev.buffers154.pwrStateResidencyTicks::UNDEFINED 33949501864500                       # Cumulative time (in ticks) in various power states
system.hmc_dev.buffers3.pwrStateResidencyTicks::UNDEFINED 33949501864500                       # Cumulative time (in ticks) in various power states
system.hmc_dev.buffers2.pwrStateResidencyTicks::UNDEFINED 33949501864500                       # Cumulative time (in ticks) in various power states
system.hmc_dev.buffers1.pwrStateResidencyTicks::UNDEFINED 33949501864500                       # Cumulative time (in ticks) in various power states
system.hmc_dev.buffers0.pwrStateResidencyTicks::UNDEFINED 33949501864500                       # Cumulative time (in ticks) in various power states
system.hmc_dev.buffers7.pwrStateResidencyTicks::UNDEFINED 33949501864500                       # Cumulative time (in ticks) in various power states
system.hmc_dev.buffers6.pwrStateResidencyTicks::UNDEFINED 33949501864500                       # Cumulative time (in ticks) in various power states
system.hmc_dev.buffers5.pwrStateResidencyTicks::UNDEFINED 33949501864500                       # Cumulative time (in ticks) in various power states
system.hmc_dev.buffers4.pwrStateResidencyTicks::UNDEFINED 33949501864500                       # Cumulative time (in ticks) in various power states
system.hmc_dev.buffers9.pwrStateResidencyTicks::UNDEFINED 33949501864500                       # Cumulative time (in ticks) in various power states
system.hmc_dev.buffers8.pwrStateResidencyTicks::UNDEFINED 33949501864500                       # Cumulative time (in ticks) in various power states
system.hmc_dev.buffers44.pwrStateResidencyTicks::UNDEFINED 33949501864500                       # Cumulative time (in ticks) in various power states
system.hmc_dev.buffers45.pwrStateResidencyTicks::UNDEFINED 33949501864500                       # Cumulative time (in ticks) in various power states
system.hmc_dev.buffers46.pwrStateResidencyTicks::UNDEFINED 33949501864500                       # Cumulative time (in ticks) in various power states
system.hmc_dev.buffers47.pwrStateResidencyTicks::UNDEFINED 33949501864500                       # Cumulative time (in ticks) in various power states
system.hmc_dev.buffers40.pwrStateResidencyTicks::UNDEFINED 33949501864500                       # Cumulative time (in ticks) in various power states
system.hmc_dev.buffers41.pwrStateResidencyTicks::UNDEFINED 33949501864500                       # Cumulative time (in ticks) in various power states
system.hmc_dev.buffers42.pwrStateResidencyTicks::UNDEFINED 33949501864500                       # Cumulative time (in ticks) in various power states
system.hmc_dev.buffers43.pwrStateResidencyTicks::UNDEFINED 33949501864500                       # Cumulative time (in ticks) in various power states
system.hmc_dev.buffers48.pwrStateResidencyTicks::UNDEFINED 33949501864500                       # Cumulative time (in ticks) in various power states
system.hmc_dev.buffers49.pwrStateResidencyTicks::UNDEFINED 33949501864500                       # Cumulative time (in ticks) in various power states
system.hmc_dev.buffers83.pwrStateResidencyTicks::UNDEFINED 33949501864500                       # Cumulative time (in ticks) in various power states
system.hmc_dev.xbar12.pwrStateResidencyTicks::UNDEFINED 33949501864500                       # Cumulative time (in ticks) in various power states
system.hmc_dev.xbar12.clk_domain.clock           1000                       # Clock period in ticks
system.hmc_dev.xbar12.clk_domain.voltage_domain.voltage            1                       # Voltage in Volts
system.hmc_dev.xbar13.pwrStateResidencyTicks::UNDEFINED 33949501864500                       # Cumulative time (in ticks) in various power states
system.hmc_dev.xbar13.clk_domain.clock           1000                       # Clock period in ticks
system.hmc_dev.xbar13.clk_domain.voltage_domain.voltage            1                       # Voltage in Volts
system.hmc_dev.xbar10.pwrStateResidencyTicks::UNDEFINED 33949501864500                       # Cumulative time (in ticks) in various power states
system.hmc_dev.xbar10.clk_domain.clock           1000                       # Clock period in ticks
system.hmc_dev.xbar10.clk_domain.voltage_domain.voltage            1                       # Voltage in Volts
system.hmc_dev.xbar11.pwrStateResidencyTicks::UNDEFINED 33949501864500                       # Cumulative time (in ticks) in various power states
system.hmc_dev.xbar11.clk_domain.clock           1000                       # Clock period in ticks
system.hmc_dev.xbar11.clk_domain.voltage_domain.voltage            1                       # Voltage in Volts
system.hmc_dev.xbar14.pwrStateResidencyTicks::UNDEFINED 33949501864500                       # Cumulative time (in ticks) in various power states
system.hmc_dev.xbar14.clk_domain.clock           1000                       # Clock period in ticks
system.hmc_dev.xbar14.clk_domain.voltage_domain.voltage            1                       # Voltage in Volts
system.hmc_dev.buffers128.pwrStateResidencyTicks::UNDEFINED 33949501864500                       # Cumulative time (in ticks) in various power states
system.hmc_dev.buffers129.pwrStateResidencyTicks::UNDEFINED 33949501864500                       # Cumulative time (in ticks) in various power states
system.hmc_dev.buffers126.pwrStateResidencyTicks::UNDEFINED 33949501864500                       # Cumulative time (in ticks) in various power states
system.hmc_dev.buffers127.pwrStateResidencyTicks::UNDEFINED 33949501864500                       # Cumulative time (in ticks) in various power states
system.hmc_dev.buffers124.pwrStateResidencyTicks::UNDEFINED 33949501864500                       # Cumulative time (in ticks) in various power states
system.hmc_dev.buffers125.pwrStateResidencyTicks::UNDEFINED 33949501864500                       # Cumulative time (in ticks) in various power states
system.hmc_dev.buffers122.pwrStateResidencyTicks::UNDEFINED 33949501864500                       # Cumulative time (in ticks) in various power states
system.hmc_dev.buffers123.pwrStateResidencyTicks::UNDEFINED 33949501864500                       # Cumulative time (in ticks) in various power states
system.hmc_dev.buffers120.pwrStateResidencyTicks::UNDEFINED 33949501864500                       # Cumulative time (in ticks) in various power states
system.hmc_dev.buffers121.pwrStateResidencyTicks::UNDEFINED 33949501864500                       # Cumulative time (in ticks) in various power states
system.hmc_dev.buffers88.pwrStateResidencyTicks::UNDEFINED 33949501864500                       # Cumulative time (in ticks) in various power states
system.hmc_dev.buffers89.pwrStateResidencyTicks::UNDEFINED 33949501864500                       # Cumulative time (in ticks) in various power states
system.hmc_dev.buffers91.pwrStateResidencyTicks::UNDEFINED 33949501864500                       # Cumulative time (in ticks) in various power states
system.hmc_dev.xbar5.pwrStateResidencyTicks::UNDEFINED 33949501864500                       # Cumulative time (in ticks) in various power states
system.hmc_dev.xbar5.trans_dist::ReadReq      1000000                       # Transaction distribution
system.hmc_dev.xbar5.trans_dist::ReadResp      1000000                       # Transaction distribution
system.hmc_dev.xbar5.trans_dist::WriteReq      1000000                       # Transaction distribution
system.hmc_dev.xbar5.trans_dist::WriteResp      1000000                       # Transaction distribution
system.hmc_dev.xbar5.pkt_count_system.hmc_dev.buffers064.master::system.hmc_dev.mem_ctrls05.port      4000000                       # Packet count per connected master and slave (bytes)
system.hmc_dev.xbar5.pkt_count_system.hmc_dev.buffers064.master::total      4000000                       # Packet count per connected master and slave (bytes)
system.hmc_dev.xbar5.pkt_count::total         4000000                       # Packet count per connected master and slave (bytes)
system.hmc_dev.xbar5.pkt_size_system.hmc_dev.buffers064.master::system.hmc_dev.mem_ctrls05.port     16000000                       # Cumulative packet size per connected master and slave (bytes)
system.hmc_dev.xbar5.pkt_size_system.hmc_dev.buffers064.master::total     16000000                       # Cumulative packet size per connected master and slave (bytes)
system.hmc_dev.xbar5.pkt_size::total         16000000                       # Cumulative packet size per connected master and slave (bytes)
system.hmc_dev.xbar5.clk_domain.clock            1000                       # Clock period in ticks
system.hmc_dev.xbar5.clk_domain.voltage_domain.voltage            1                       # Voltage in Volts
system.hmc_dev.xbar5.reqLayer15.occupancy   3620606800                       # Layer occupancy (ticks)
system.hmc_dev.xbar5.reqLayer15.utilization          0.0                       # Layer utilization (%)
system.hmc_dev.xbar5.respLayer4.occupancy   3700000000                       # Layer occupancy (ticks)
system.hmc_dev.xbar5.respLayer4.utilization          0.0                       # Layer utilization (%)
system.hmc_dev.buffers31.pwrStateResidencyTicks::UNDEFINED 33949501864500                       # Cumulative time (in ticks) in various power states
system.hmc_dev.buffers30.pwrStateResidencyTicks::UNDEFINED 33949501864500                       # Cumulative time (in ticks) in various power states
system.hmc_dev.buffers33.pwrStateResidencyTicks::UNDEFINED 33949501864500                       # Cumulative time (in ticks) in various power states
system.hmc_dev.buffers32.pwrStateResidencyTicks::UNDEFINED 33949501864500                       # Cumulative time (in ticks) in various power states
system.hmc_dev.buffers35.pwrStateResidencyTicks::UNDEFINED 33949501864500                       # Cumulative time (in ticks) in various power states
system.hmc_dev.buffers34.pwrStateResidencyTicks::UNDEFINED 33949501864500                       # Cumulative time (in ticks) in various power states
system.hmc_dev.buffers37.pwrStateResidencyTicks::UNDEFINED 33949501864500                       # Cumulative time (in ticks) in various power states
system.hmc_dev.buffers36.pwrStateResidencyTicks::UNDEFINED 33949501864500                       # Cumulative time (in ticks) in various power states
system.hmc_dev.buffers39.pwrStateResidencyTicks::UNDEFINED 33949501864500                       # Cumulative time (in ticks) in various power states
system.hmc_dev.buffers38.pwrStateResidencyTicks::UNDEFINED 33949501864500                       # Cumulative time (in ticks) in various power states
system.hmc_dev.xbar6.pwrStateResidencyTicks::UNDEFINED 33949501864500                       # Cumulative time (in ticks) in various power states
system.hmc_dev.xbar6.trans_dist::ReadReq      1000000                       # Transaction distribution
system.hmc_dev.xbar6.trans_dist::ReadResp      1000000                       # Transaction distribution
system.hmc_dev.xbar6.trans_dist::WriteReq      1000000                       # Transaction distribution
system.hmc_dev.xbar6.trans_dist::WriteResp      1000000                       # Transaction distribution
system.hmc_dev.xbar6.pkt_count_system.hmc_dev.buffers065.master::system.hmc_dev.mem_ctrls06.port      4000000                       # Packet count per connected master and slave (bytes)
system.hmc_dev.xbar6.pkt_count_system.hmc_dev.buffers065.master::total      4000000                       # Packet count per connected master and slave (bytes)
system.hmc_dev.xbar6.pkt_count::total         4000000                       # Packet count per connected master and slave (bytes)
system.hmc_dev.xbar6.pkt_size_system.hmc_dev.buffers065.master::system.hmc_dev.mem_ctrls06.port     16000000                       # Cumulative packet size per connected master and slave (bytes)
system.hmc_dev.xbar6.pkt_size_system.hmc_dev.buffers065.master::total     16000000                       # Cumulative packet size per connected master and slave (bytes)
system.hmc_dev.xbar6.pkt_size::total         16000000                       # Cumulative packet size per connected master and slave (bytes)
system.hmc_dev.xbar6.clk_domain.clock            1000                       # Clock period in ticks
system.hmc_dev.xbar6.clk_domain.voltage_domain.voltage            1                       # Voltage in Volts
system.hmc_dev.xbar6.reqLayer15.occupancy   3345218800                       # Layer occupancy (ticks)
system.hmc_dev.xbar6.reqLayer15.utilization          0.0                       # Layer utilization (%)
system.hmc_dev.xbar6.respLayer4.occupancy   3700000000                       # Layer occupancy (ticks)
system.hmc_dev.xbar6.respLayer4.utilization          0.0                       # Layer utilization (%)
system.hmc_dev.xbar3.pwrStateResidencyTicks::UNDEFINED 33949501864500                       # Cumulative time (in ticks) in various power states
system.hmc_dev.xbar3.trans_dist::ReadReq      1000000                       # Transaction distribution
system.hmc_dev.xbar3.trans_dist::ReadResp      1000000                       # Transaction distribution
system.hmc_dev.xbar3.trans_dist::WriteReq      1000000                       # Transaction distribution
system.hmc_dev.xbar3.trans_dist::WriteResp      1000000                       # Transaction distribution
system.hmc_dev.xbar3.pkt_count_system.hmc_dev.buffers002.master::system.hmc_dev.mem_ctrls03.port      4000000                       # Packet count per connected master and slave (bytes)
system.hmc_dev.xbar3.pkt_count_system.hmc_dev.buffers002.master::total      4000000                       # Packet count per connected master and slave (bytes)
system.hmc_dev.xbar3.pkt_count::total         4000000                       # Packet count per connected master and slave (bytes)
system.hmc_dev.xbar3.pkt_size_system.hmc_dev.buffers002.master::system.hmc_dev.mem_ctrls03.port     16000000                       # Cumulative packet size per connected master and slave (bytes)
system.hmc_dev.xbar3.pkt_size_system.hmc_dev.buffers002.master::total     16000000                       # Cumulative packet size per connected master and slave (bytes)
system.hmc_dev.xbar3.pkt_size::total         16000000                       # Cumulative packet size per connected master and slave (bytes)
system.hmc_dev.xbar3.clk_domain.clock            1000                       # Clock period in ticks
system.hmc_dev.xbar3.clk_domain.voltage_domain.voltage            1                       # Voltage in Volts
system.hmc_dev.xbar3.reqLayer15.occupancy   3526891200                       # Layer occupancy (ticks)
system.hmc_dev.xbar3.reqLayer15.utilization          0.0                       # Layer utilization (%)
system.hmc_dev.xbar3.respLayer0.occupancy   3700000100                       # Layer occupancy (ticks)
system.hmc_dev.xbar3.respLayer0.utilization          0.0                       # Layer utilization (%)
system.hmc_dev.buffers139.pwrStateResidencyTicks::UNDEFINED 33949501864500                       # Cumulative time (in ticks) in various power states
system.hmc_dev.buffers138.pwrStateResidencyTicks::UNDEFINED 33949501864500                       # Cumulative time (in ticks) in various power states
system.hmc_dev.buffers135.pwrStateResidencyTicks::UNDEFINED 33949501864500                       # Cumulative time (in ticks) in various power states
system.hmc_dev.buffers134.pwrStateResidencyTicks::UNDEFINED 33949501864500                       # Cumulative time (in ticks) in various power states
system.hmc_dev.buffers137.pwrStateResidencyTicks::UNDEFINED 33949501864500                       # Cumulative time (in ticks) in various power states
system.hmc_dev.buffers136.pwrStateResidencyTicks::UNDEFINED 33949501864500                       # Cumulative time (in ticks) in various power states
system.hmc_dev.buffers131.pwrStateResidencyTicks::UNDEFINED 33949501864500                       # Cumulative time (in ticks) in various power states
system.hmc_dev.buffers130.pwrStateResidencyTicks::UNDEFINED 33949501864500                       # Cumulative time (in ticks) in various power states
system.hmc_dev.buffers133.pwrStateResidencyTicks::UNDEFINED 33949501864500                       # Cumulative time (in ticks) in various power states
system.hmc_dev.buffers132.pwrStateResidencyTicks::UNDEFINED 33949501864500                       # Cumulative time (in ticks) in various power states
system.hmc_dev.buffers232.pwrStateResidencyTicks::UNDEFINED 33949501864500                       # Cumulative time (in ticks) in various power states
system.hmc_dev.buffers233.pwrStateResidencyTicks::UNDEFINED 33949501864500                       # Cumulative time (in ticks) in various power states
system.hmc_dev.buffers230.pwrStateResidencyTicks::UNDEFINED 33949501864500                       # Cumulative time (in ticks) in various power states
system.hmc_dev.buffers231.pwrStateResidencyTicks::UNDEFINED 33949501864500                       # Cumulative time (in ticks) in various power states
system.hmc_dev.buffers236.pwrStateResidencyTicks::UNDEFINED 33949501864500                       # Cumulative time (in ticks) in various power states
system.hmc_dev.buffers237.pwrStateResidencyTicks::UNDEFINED 33949501864500                       # Cumulative time (in ticks) in various power states
system.hmc_dev.buffers234.pwrStateResidencyTicks::UNDEFINED 33949501864500                       # Cumulative time (in ticks) in various power states
system.hmc_dev.buffers235.pwrStateResidencyTicks::UNDEFINED 33949501864500                       # Cumulative time (in ticks) in various power states
system.hmc_dev.buffers238.pwrStateResidencyTicks::UNDEFINED 33949501864500                       # Cumulative time (in ticks) in various power states
system.hmc_dev.buffers239.pwrStateResidencyTicks::UNDEFINED 33949501864500                       # Cumulative time (in ticks) in various power states
system.hmc_dev.mem_ctrls3.pwrStateResidencyTicks::UNDEFINED 33949501864500                       # Cumulative time (in ticks) in various power states
system.hmc_dev.mem_ctrls3.bytes_read::.cpu.data      8000000                       # Number of bytes read from this memory
system.hmc_dev.mem_ctrls3.bytes_read::total      8000000                       # Number of bytes read from this memory
system.hmc_dev.mem_ctrls3.bytes_written::.cpu.data      8000000                       # Number of bytes written to this memory
system.hmc_dev.mem_ctrls3.bytes_written::total      8000000                       # Number of bytes written to this memory
system.hmc_dev.mem_ctrls3.num_reads::.cpu.data      1000000                       # Number of read requests responded to by this memory
system.hmc_dev.mem_ctrls3.num_reads::total      1000000                       # Number of read requests responded to by this memory
system.hmc_dev.mem_ctrls3.num_writes::.cpu.data      1000000                       # Number of write requests responded to by this memory
system.hmc_dev.mem_ctrls3.num_writes::total      1000000                       # Number of write requests responded to by this memory
system.hmc_dev.mem_ctrls3.bw_read::.cpu.data       235644                       # Total read bandwidth from this memory (bytes/s)
system.hmc_dev.mem_ctrls3.bw_read::total       235644                       # Total read bandwidth from this memory (bytes/s)
system.hmc_dev.mem_ctrls3.bw_write::.cpu.data       235644                       # Write bandwidth from this memory (bytes/s)
system.hmc_dev.mem_ctrls3.bw_write::total       235644                       # Write bandwidth from this memory (bytes/s)
system.hmc_dev.mem_ctrls3.bw_total::.cpu.data       471288                       # Total bandwidth to/from this memory (bytes/s)
system.hmc_dev.mem_ctrls3.bw_total::total       471288                       # Total bandwidth to/from this memory (bytes/s)
system.hmc_dev.mem_ctrls3.avgPriority_.cpu.data::samples   1250001.00                       # Average QoS priority value for accepted requests
system.hmc_dev.mem_ctrls3.priorityMinLatency 0.000000023300                       # per QoS priority minimum request to response latency (s)
system.hmc_dev.mem_ctrls3.priorityMaxLatency 0.005937319300                       # per QoS priority maximum request to response latency (s)
system.hmc_dev.mem_ctrls3.numReadWriteTurnArounds        24999                       # Number of turnarounds from READ to WRITE
system.hmc_dev.mem_ctrls3.numWriteReadTurnArounds        24999                       # Number of turnarounds from WRITE to READ
system.hmc_dev.mem_ctrls3.numStayReadState     11722221                       # Number of times bus staying in READ state
system.hmc_dev.mem_ctrls3.numStayWriteState       224991                       # Number of times bus staying in WRITE state
system.hmc_dev.mem_ctrls3.readReqs            1000000                       # Number of read requests accepted
system.hmc_dev.mem_ctrls3.writeReqs           1000000                       # Number of write requests accepted
system.hmc_dev.mem_ctrls3.readBursts          1000000                       # Number of DRAM read bursts, including those serviced by the write queue
system.hmc_dev.mem_ctrls3.writeBursts         1000000                       # Number of DRAM write bursts, including those merged in the write queue
system.hmc_dev.mem_ctrls3.servicedByWrQ             0                       # Number of DRAM read bursts serviced by the write queue
system.hmc_dev.mem_ctrls3.mergedWrBursts       749999                       # Number of DRAM write bursts merged with an existing one
system.hmc_dev.mem_ctrls3.neitherReadNorWriteReqs            0                       # Number of requests that are neither read nor write
system.hmc_dev.mem_ctrls3.perBankRdBursts::0       500000                       # Per bank write bursts
system.hmc_dev.mem_ctrls3.perBankRdBursts::1       500000                       # Per bank write bursts
system.hmc_dev.mem_ctrls3.perBankWrBursts::0       124992                       # Per bank write bursts
system.hmc_dev.mem_ctrls3.perBankWrBursts::1       124998                       # Per bank write bursts
system.hmc_dev.mem_ctrls3.avgRdQLen              0.99                       # Average read queue length when enqueuing
system.hmc_dev.mem_ctrls3.avgWrQLen             12.42                       # Average write queue length when enqueuing
system.hmc_dev.mem_ctrls3.totQLat         10200013900                       # Total ticks spent queuing
system.hmc_dev.mem_ctrls3.totBusLat        3200000000                       # Total ticks spent in databus transfers
system.hmc_dev.mem_ctrls3.totMemAccLat    23300013900                       # Total ticks spent from burst creation until serviced by the DRAM
system.hmc_dev.mem_ctrls3.avgQLat            10200.01                       # Average queueing delay per DRAM burst
system.hmc_dev.mem_ctrls3.avgBusLat           3200.00                       # Average bus latency per DRAM burst
system.hmc_dev.mem_ctrls3.avgMemAccLat       23300.01                       # Average memory access latency per DRAM burst
system.hmc_dev.mem_ctrls3.numRdRetry                0                       # Number of times read queue was full causing retry
system.hmc_dev.mem_ctrls3.numWrRetry                0                       # Number of times write queue was full causing retry
system.hmc_dev.mem_ctrls3.readRowHits               0                       # Number of row buffer hits during reads
system.hmc_dev.mem_ctrls3.writeRowHits         193742                       # Number of row buffer hits during writes
system.hmc_dev.mem_ctrls3.readRowHitRate         0.00                       # Row buffer hit rate for reads
system.hmc_dev.mem_ctrls3.writeRowHitRate        77.50                       # Row buffer hit rate for writes
system.hmc_dev.mem_ctrls3.readPktSize::0            0                       # Read request sizes (log2)
system.hmc_dev.mem_ctrls3.readPktSize::1            0                       # Read request sizes (log2)
system.hmc_dev.mem_ctrls3.readPktSize::2            0                       # Read request sizes (log2)
system.hmc_dev.mem_ctrls3.readPktSize::3      1000000                       # Read request sizes (log2)
system.hmc_dev.mem_ctrls3.readPktSize::4            0                       # Read request sizes (log2)
system.hmc_dev.mem_ctrls3.readPktSize::5            0                       # Read request sizes (log2)
system.hmc_dev.mem_ctrls3.writePktSize::0            0                       # Write request sizes (log2)
system.hmc_dev.mem_ctrls3.writePktSize::1            0                       # Write request sizes (log2)
system.hmc_dev.mem_ctrls3.writePktSize::2            0                       # Write request sizes (log2)
system.hmc_dev.mem_ctrls3.writePktSize::3      1000000                       # Write request sizes (log2)
system.hmc_dev.mem_ctrls3.writePktSize::4            0                       # Write request sizes (log2)
system.hmc_dev.mem_ctrls3.writePktSize::5            0                       # Write request sizes (log2)
system.hmc_dev.mem_ctrls3.rdQLenPdf::0        1000000                       # What read queue length does an incoming req see
system.hmc_dev.mem_ctrls3.rdQLenPdf::1              0                       # What read queue length does an incoming req see
system.hmc_dev.mem_ctrls3.rdQLenPdf::2              0                       # What read queue length does an incoming req see
system.hmc_dev.mem_ctrls3.rdQLenPdf::3              0                       # What read queue length does an incoming req see
system.hmc_dev.mem_ctrls3.rdQLenPdf::4              0                       # What read queue length does an incoming req see
system.hmc_dev.mem_ctrls3.rdQLenPdf::5              0                       # What read queue length does an incoming req see
system.hmc_dev.mem_ctrls3.rdQLenPdf::6              0                       # What read queue length does an incoming req see
system.hmc_dev.mem_ctrls3.rdQLenPdf::7              0                       # What read queue length does an incoming req see
system.hmc_dev.mem_ctrls3.rdQLenPdf::8              0                       # What read queue length does an incoming req see
system.hmc_dev.mem_ctrls3.rdQLenPdf::9              0                       # What read queue length does an incoming req see
system.hmc_dev.mem_ctrls3.rdQLenPdf::10             0                       # What read queue length does an incoming req see
system.hmc_dev.mem_ctrls3.rdQLenPdf::11             0                       # What read queue length does an incoming req see
system.hmc_dev.mem_ctrls3.rdQLenPdf::12             0                       # What read queue length does an incoming req see
system.hmc_dev.mem_ctrls3.rdQLenPdf::13             0                       # What read queue length does an incoming req see
system.hmc_dev.mem_ctrls3.rdQLenPdf::14             0                       # What read queue length does an incoming req see
system.hmc_dev.mem_ctrls3.rdQLenPdf::15             0                       # What read queue length does an incoming req see
system.hmc_dev.mem_ctrls3.rdQLenPdf::16             0                       # What read queue length does an incoming req see
system.hmc_dev.mem_ctrls3.rdQLenPdf::17             0                       # What read queue length does an incoming req see
system.hmc_dev.mem_ctrls3.rdQLenPdf::18             0                       # What read queue length does an incoming req see
system.hmc_dev.mem_ctrls3.rdQLenPdf::19             0                       # What read queue length does an incoming req see
system.hmc_dev.mem_ctrls3.rdQLenPdf::20             0                       # What read queue length does an incoming req see
system.hmc_dev.mem_ctrls3.rdQLenPdf::21             0                       # What read queue length does an incoming req see
system.hmc_dev.mem_ctrls3.rdQLenPdf::22             0                       # What read queue length does an incoming req see
system.hmc_dev.mem_ctrls3.rdQLenPdf::23             0                       # What read queue length does an incoming req see
system.hmc_dev.mem_ctrls3.rdQLenPdf::24             0                       # What read queue length does an incoming req see
system.hmc_dev.mem_ctrls3.rdQLenPdf::25             0                       # What read queue length does an incoming req see
system.hmc_dev.mem_ctrls3.rdQLenPdf::26             0                       # What read queue length does an incoming req see
system.hmc_dev.mem_ctrls3.rdQLenPdf::27             0                       # What read queue length does an incoming req see
system.hmc_dev.mem_ctrls3.rdQLenPdf::28             0                       # What read queue length does an incoming req see
system.hmc_dev.mem_ctrls3.rdQLenPdf::29             0                       # What read queue length does an incoming req see
system.hmc_dev.mem_ctrls3.rdQLenPdf::30             0                       # What read queue length does an incoming req see
system.hmc_dev.mem_ctrls3.rdQLenPdf::31             0                       # What read queue length does an incoming req see
system.hmc_dev.mem_ctrls3.wrQLenPdf::0              1                       # What write queue length does an incoming req see
system.hmc_dev.mem_ctrls3.wrQLenPdf::1              1                       # What write queue length does an incoming req see
system.hmc_dev.mem_ctrls3.wrQLenPdf::2              1                       # What write queue length does an incoming req see
system.hmc_dev.mem_ctrls3.wrQLenPdf::3              1                       # What write queue length does an incoming req see
system.hmc_dev.mem_ctrls3.wrQLenPdf::4              1                       # What write queue length does an incoming req see
system.hmc_dev.mem_ctrls3.wrQLenPdf::5              1                       # What write queue length does an incoming req see
system.hmc_dev.mem_ctrls3.wrQLenPdf::6              1                       # What write queue length does an incoming req see
system.hmc_dev.mem_ctrls3.wrQLenPdf::7          25000                       # What write queue length does an incoming req see
system.hmc_dev.mem_ctrls3.wrQLenPdf::8          25000                       # What write queue length does an incoming req see
system.hmc_dev.mem_ctrls3.wrQLenPdf::9          25000                       # What write queue length does an incoming req see
system.hmc_dev.mem_ctrls3.wrQLenPdf::10         25000                       # What write queue length does an incoming req see
system.hmc_dev.mem_ctrls3.wrQLenPdf::11         24999                       # What write queue length does an incoming req see
system.hmc_dev.mem_ctrls3.wrQLenPdf::12         24999                       # What write queue length does an incoming req see
system.hmc_dev.mem_ctrls3.wrQLenPdf::13         24999                       # What write queue length does an incoming req see
system.hmc_dev.mem_ctrls3.wrQLenPdf::14         24999                       # What write queue length does an incoming req see
system.hmc_dev.mem_ctrls3.wrQLenPdf::15         24999                       # What write queue length does an incoming req see
system.hmc_dev.mem_ctrls3.wrQLenPdf::16         24999                       # What write queue length does an incoming req see
system.hmc_dev.mem_ctrls3.wrQLenPdf::17             0                       # What write queue length does an incoming req see
system.hmc_dev.mem_ctrls3.wrQLenPdf::18             0                       # What write queue length does an incoming req see
system.hmc_dev.mem_ctrls3.wrQLenPdf::19             0                       # What write queue length does an incoming req see
system.hmc_dev.mem_ctrls3.wrQLenPdf::20             0                       # What write queue length does an incoming req see
system.hmc_dev.mem_ctrls3.wrQLenPdf::21             0                       # What write queue length does an incoming req see
system.hmc_dev.mem_ctrls3.wrQLenPdf::22             0                       # What write queue length does an incoming req see
system.hmc_dev.mem_ctrls3.wrQLenPdf::23             0                       # What write queue length does an incoming req see
system.hmc_dev.mem_ctrls3.wrQLenPdf::24             0                       # What write queue length does an incoming req see
system.hmc_dev.mem_ctrls3.wrQLenPdf::25             0                       # What write queue length does an incoming req see
system.hmc_dev.mem_ctrls3.wrQLenPdf::26             0                       # What write queue length does an incoming req see
system.hmc_dev.mem_ctrls3.wrQLenPdf::27             0                       # What write queue length does an incoming req see
system.hmc_dev.mem_ctrls3.wrQLenPdf::28             0                       # What write queue length does an incoming req see
system.hmc_dev.mem_ctrls3.wrQLenPdf::29             0                       # What write queue length does an incoming req see
system.hmc_dev.mem_ctrls3.wrQLenPdf::30             0                       # What write queue length does an incoming req see
system.hmc_dev.mem_ctrls3.wrQLenPdf::31             0                       # What write queue length does an incoming req see
system.hmc_dev.mem_ctrls3.bytesPerActivate::samples      1056248                       # Bytes accessed per row activation
system.hmc_dev.mem_ctrls3.bytesPerActivate::mean    37.869591                       # Bytes accessed per row activation
system.hmc_dev.mem_ctrls3.bytesPerActivate::gmean    34.225326                       # Bytes accessed per row activation
system.hmc_dev.mem_ctrls3.bytesPerActivate::stdev    31.648391                       # Bytes accessed per row activation
system.hmc_dev.mem_ctrls3.bytesPerActivate::32-63      1006250     95.27%     95.27% # Bytes accessed per row activation
system.hmc_dev.mem_ctrls3.bytesPerActivate::64-95        18749      1.78%     97.04% # Bytes accessed per row activation
system.hmc_dev.mem_ctrls3.bytesPerActivate::128-159         6250      0.59%     97.63% # Bytes accessed per row activation
system.hmc_dev.mem_ctrls3.bytesPerActivate::192-223         6250      0.59%     98.22% # Bytes accessed per row activation
system.hmc_dev.mem_ctrls3.bytesPerActivate::224-255         6250      0.59%     98.82% # Bytes accessed per row activation
system.hmc_dev.mem_ctrls3.bytesPerActivate::256-287        12499      1.18%    100.00% # Bytes accessed per row activation
system.hmc_dev.mem_ctrls3.bytesPerActivate::total      1056248                       # Bytes accessed per row activation
system.hmc_dev.mem_ctrls3.rdPerTurnAround::samples        24999                       # Reads before turning the bus around for writes
system.hmc_dev.mem_ctrls3.rdPerTurnAround::mean    40.000920                       # Reads before turning the bus around for writes
system.hmc_dev.mem_ctrls3.rdPerTurnAround::gmean    40.000727                       # Reads before turning the bus around for writes
system.hmc_dev.mem_ctrls3.rdPerTurnAround::stdev     0.145468                       # Reads before turning the bus around for writes
system.hmc_dev.mem_ctrls3.rdPerTurnAround::40-41        24998    100.00%    100.00% # Reads before turning the bus around for writes
system.hmc_dev.mem_ctrls3.rdPerTurnAround::62-63            1      0.00%    100.00% # Reads before turning the bus around for writes
system.hmc_dev.mem_ctrls3.rdPerTurnAround::total        24999                       # Reads before turning the bus around for writes
system.hmc_dev.mem_ctrls3.wrPerTurnAround::samples        24999                       # Writes before turning the bus around for reads
system.hmc_dev.mem_ctrls3.wrPerTurnAround::mean           10                       # Writes before turning the bus around for reads
system.hmc_dev.mem_ctrls3.wrPerTurnAround::gmean    10.000000                       # Writes before turning the bus around for reads
system.hmc_dev.mem_ctrls3.wrPerTurnAround::10        24999    100.00%    100.00% # Writes before turning the bus around for reads
system.hmc_dev.mem_ctrls3.wrPerTurnAround::total        24999                       # Writes before turning the bus around for reads
system.hmc_dev.mem_ctrls3.bytesReadDRAM      32000000                       # Total number of bytes read from DRAM
system.hmc_dev.mem_ctrls3.bytesReadWrQ              0                       # Total number of bytes read from write queue
system.hmc_dev.mem_ctrls3.bytesWritten        7999680                       # Total number of bytes written to DRAM
system.hmc_dev.mem_ctrls3.bytesReadSys        8000000                       # Total read bytes from the system interface side
system.hmc_dev.mem_ctrls3.bytesWrittenSys      8000000                       # Total written bytes from the system interface side
system.hmc_dev.mem_ctrls3.avgRdBW                0.94                       # Average DRAM read bandwidth in MiByte/s
system.hmc_dev.mem_ctrls3.avgWrBW                0.24                       # Average achieved write bandwidth in MiByte/s
system.hmc_dev.mem_ctrls3.avgRdBWSys             0.24                       # Average system read bandwidth in MiByte/s
system.hmc_dev.mem_ctrls3.avgWrBWSys             0.24                       # Average system write bandwidth in MiByte/s
system.hmc_dev.mem_ctrls3.peakBW             10000.00                       # Theoretical peak bandwidth in MiByte/s
system.hmc_dev.mem_ctrls3.busUtil                0.01                       # Data bus utilization in percentage
system.hmc_dev.mem_ctrls3.busUtilRead            0.01                       # Data bus utilization in percentage for reads
system.hmc_dev.mem_ctrls3.busUtilWrite           0.00                       # Data bus utilization in percentage for writes
system.hmc_dev.mem_ctrls3.totGap         33733236013800                       # Total gap between requests
system.hmc_dev.mem_ctrls3.avgGap          16866618.01                       # Average gap between requests
system.hmc_dev.mem_ctrls3.masterReadBytes::.cpu.data      8000000                       # Per-master bytes read from memory
system.hmc_dev.mem_ctrls3.masterWriteBytes::.cpu.data      1999920                       # Per-master bytes write to memory
system.hmc_dev.mem_ctrls3.masterReadRate::.cpu.data 235644.105528551678                       # Per-master bytes read from memory rate (Bytes/sec)
system.hmc_dev.mem_ctrls3.masterWriteRate::.cpu.data 58908.669941082633                       # Per-master bytes write to memory rate (Bytes/sec)
system.hmc_dev.mem_ctrls3.masterReadAccesses::.cpu.data      1000000                       # Per-master read serviced memory accesses
system.hmc_dev.mem_ctrls3.masterWriteAccesses::.cpu.data      1000000                       # Per-master write serviced memory accesses
system.hmc_dev.mem_ctrls3.masterReadTotalLat::.cpu.data  23300013900                       # Per-master read total memory access latency
system.hmc_dev.mem_ctrls3.masterWriteTotalLat::.cpu.data 387923380710400                       # Per-master write total memory access latency
system.hmc_dev.mem_ctrls3.masterReadAvgLat::.cpu.data     23300.01                       # Per-master read average memory access latency
system.hmc_dev.mem_ctrls3.masterWriteAvgLat::.cpu.data 387923380.71                       # Per-master write average memory access latency
system.hmc_dev.mem_ctrls3.pageHitRate           15.50                       # Row buffer hit rate, read and write combined
system.hmc_dev.mem_ctrls3.rank0.actEnergy 581781398.403908                       # Energy for activate commands per rank (pJ)
system.hmc_dev.mem_ctrls3.rank0.preEnergy    291524448                       # Energy for precharge commands per rank (pJ)
system.hmc_dev.mem_ctrls3.rank0.readEnergy 571199999.994957                       # Energy for read commands per rank (pJ)
system.hmc_dev.mem_ctrls3.rank0.writeEnergy    104395824                       # Energy for write commands per rank (pJ)
system.hmc_dev.mem_ctrls3.rank0.refreshEnergy 152583045310.628876                       # Energy for refresh commands per rank (pJ)
system.hmc_dev.mem_ctrls3.rank0.actBackEnergy 29143752211.947571                       # Energy for active background per rank (pJ)
system.hmc_dev.mem_ctrls3.rank0.preBackEnergy 1605033982394.798584                       # Energy for precharge background per rank (pJ)
system.hmc_dev.mem_ctrls3.rank0.actPowerDownEnergy            0                       # Energy for active power-down per rank (pJ)
system.hmc_dev.mem_ctrls3.rank0.prePowerDownEnergy            0                       # Energy for precharge power-down per rank (pJ)
system.hmc_dev.mem_ctrls3.rank0.selfRefreshEnergy            0                       # Energy for self refresh per rank (pJ)
system.hmc_dev.mem_ctrls3.rank0.totalEnergy 1788309681525.352539                       # Total energy per rank (pJ)
system.hmc_dev.mem_ctrls3.rank0.averagePower    52.675579                       # Core power per rank (mW)
system.hmc_dev.mem_ctrls3.rank0.totalIdleTime            0                       # Total Idle time Per DRAM Rank
system.hmc_dev.mem_ctrls3.rank0.memoryStateTime::IDLE 33362281524300                       # Time in different power states
system.hmc_dev.mem_ctrls3.rank0.memoryStateTime::REF 514611039000                       # Time in different power states
system.hmc_dev.mem_ctrls3.rank0.memoryStateTime::SREF            0                       # Time in different power states
system.hmc_dev.mem_ctrls3.rank0.memoryStateTime::PRE_PDN            0                       # Time in different power states
system.hmc_dev.mem_ctrls3.rank0.memoryStateTime::ACT  72609301200                       # Time in different power states
system.hmc_dev.mem_ctrls3.rank0.memoryStateTime::ACT_PDN            0                       # Time in different power states
system.hmc_dev.mem_ctrls13.pwrStateResidencyTicks::UNDEFINED 33949501864500                       # Cumulative time (in ticks) in various power states
system.hmc_dev.mem_ctrls13.priorityMinLatency 0.000000000000                       # per QoS priority minimum request to response latency (s)
system.hmc_dev.mem_ctrls13.priorityMaxLatency 0.000000000000                       # per QoS priority maximum request to response latency (s)
system.hmc_dev.mem_ctrls13.numReadWriteTurnArounds            0                       # Number of turnarounds from READ to WRITE
system.hmc_dev.mem_ctrls13.numWriteReadTurnArounds            0                       # Number of turnarounds from WRITE to READ
system.hmc_dev.mem_ctrls13.numStayReadState      8722221                       # Number of times bus staying in READ state
system.hmc_dev.mem_ctrls13.numStayWriteState            0                       # Number of times bus staying in WRITE state
system.hmc_dev.mem_ctrls13.readReqs                 0                       # Number of read requests accepted
system.hmc_dev.mem_ctrls13.writeReqs                0                       # Number of write requests accepted
system.hmc_dev.mem_ctrls13.readBursts               0                       # Number of DRAM read bursts, including those serviced by the write queue
system.hmc_dev.mem_ctrls13.writeBursts              0                       # Number of DRAM write bursts, including those merged in the write queue
system.hmc_dev.mem_ctrls13.servicedByWrQ            0                       # Number of DRAM read bursts serviced by the write queue
system.hmc_dev.mem_ctrls13.mergedWrBursts            0                       # Number of DRAM write bursts merged with an existing one
system.hmc_dev.mem_ctrls13.neitherReadNorWriteReqs            0                       # Number of requests that are neither read nor write
system.hmc_dev.mem_ctrls13.perBankRdBursts::0            0                       # Per bank write bursts
system.hmc_dev.mem_ctrls13.perBankRdBursts::1            0                       # Per bank write bursts
system.hmc_dev.mem_ctrls13.perBankWrBursts::0            0                       # Per bank write bursts
system.hmc_dev.mem_ctrls13.perBankWrBursts::1            0                       # Per bank write bursts
system.hmc_dev.mem_ctrls13.avgRdQLen             0.00                       # Average read queue length when enqueuing
system.hmc_dev.mem_ctrls13.avgWrQLen             0.00                       # Average write queue length when enqueuing
system.hmc_dev.mem_ctrls13.totQLat                  0                       # Total ticks spent queuing
system.hmc_dev.mem_ctrls13.totBusLat                0                       # Total ticks spent in databus transfers
system.hmc_dev.mem_ctrls13.totMemAccLat             0                       # Total ticks spent from burst creation until serviced by the DRAM
system.hmc_dev.mem_ctrls13.avgQLat                nan                       # Average queueing delay per DRAM burst
system.hmc_dev.mem_ctrls13.avgBusLat              nan                       # Average bus latency per DRAM burst
system.hmc_dev.mem_ctrls13.avgMemAccLat           nan                       # Average memory access latency per DRAM burst
system.hmc_dev.mem_ctrls13.numRdRetry               0                       # Number of times read queue was full causing retry
system.hmc_dev.mem_ctrls13.numWrRetry               0                       # Number of times write queue was full causing retry
system.hmc_dev.mem_ctrls13.readRowHits              0                       # Number of row buffer hits during reads
system.hmc_dev.mem_ctrls13.writeRowHits             0                       # Number of row buffer hits during writes
system.hmc_dev.mem_ctrls13.readRowHitRate          nan                       # Row buffer hit rate for reads
system.hmc_dev.mem_ctrls13.writeRowHitRate          nan                       # Row buffer hit rate for writes
system.hmc_dev.mem_ctrls13.readPktSize::0            0                       # Read request sizes (log2)
system.hmc_dev.mem_ctrls13.readPktSize::1            0                       # Read request sizes (log2)
system.hmc_dev.mem_ctrls13.readPktSize::2            0                       # Read request sizes (log2)
system.hmc_dev.mem_ctrls13.readPktSize::3            0                       # Read request sizes (log2)
system.hmc_dev.mem_ctrls13.readPktSize::4            0                       # Read request sizes (log2)
system.hmc_dev.mem_ctrls13.readPktSize::5            0                       # Read request sizes (log2)
system.hmc_dev.mem_ctrls13.writePktSize::0            0                       # Write request sizes (log2)
system.hmc_dev.mem_ctrls13.writePktSize::1            0                       # Write request sizes (log2)
system.hmc_dev.mem_ctrls13.writePktSize::2            0                       # Write request sizes (log2)
system.hmc_dev.mem_ctrls13.writePktSize::3            0                       # Write request sizes (log2)
system.hmc_dev.mem_ctrls13.writePktSize::4            0                       # Write request sizes (log2)
system.hmc_dev.mem_ctrls13.writePktSize::5            0                       # Write request sizes (log2)
system.hmc_dev.mem_ctrls13.rdQLenPdf::0             0                       # What read queue length does an incoming req see
system.hmc_dev.mem_ctrls13.rdQLenPdf::1             0                       # What read queue length does an incoming req see
system.hmc_dev.mem_ctrls13.rdQLenPdf::2             0                       # What read queue length does an incoming req see
system.hmc_dev.mem_ctrls13.rdQLenPdf::3             0                       # What read queue length does an incoming req see
system.hmc_dev.mem_ctrls13.rdQLenPdf::4             0                       # What read queue length does an incoming req see
system.hmc_dev.mem_ctrls13.rdQLenPdf::5             0                       # What read queue length does an incoming req see
system.hmc_dev.mem_ctrls13.rdQLenPdf::6             0                       # What read queue length does an incoming req see
system.hmc_dev.mem_ctrls13.rdQLenPdf::7             0                       # What read queue length does an incoming req see
system.hmc_dev.mem_ctrls13.rdQLenPdf::8             0                       # What read queue length does an incoming req see
system.hmc_dev.mem_ctrls13.rdQLenPdf::9             0                       # What read queue length does an incoming req see
system.hmc_dev.mem_ctrls13.rdQLenPdf::10            0                       # What read queue length does an incoming req see
system.hmc_dev.mem_ctrls13.rdQLenPdf::11            0                       # What read queue length does an incoming req see
system.hmc_dev.mem_ctrls13.rdQLenPdf::12            0                       # What read queue length does an incoming req see
system.hmc_dev.mem_ctrls13.rdQLenPdf::13            0                       # What read queue length does an incoming req see
system.hmc_dev.mem_ctrls13.rdQLenPdf::14            0                       # What read queue length does an incoming req see
system.hmc_dev.mem_ctrls13.rdQLenPdf::15            0                       # What read queue length does an incoming req see
system.hmc_dev.mem_ctrls13.rdQLenPdf::16            0                       # What read queue length does an incoming req see
system.hmc_dev.mem_ctrls13.rdQLenPdf::17            0                       # What read queue length does an incoming req see
system.hmc_dev.mem_ctrls13.rdQLenPdf::18            0                       # What read queue length does an incoming req see
system.hmc_dev.mem_ctrls13.rdQLenPdf::19            0                       # What read queue length does an incoming req see
system.hmc_dev.mem_ctrls13.rdQLenPdf::20            0                       # What read queue length does an incoming req see
system.hmc_dev.mem_ctrls13.rdQLenPdf::21            0                       # What read queue length does an incoming req see
system.hmc_dev.mem_ctrls13.rdQLenPdf::22            0                       # What read queue length does an incoming req see
system.hmc_dev.mem_ctrls13.rdQLenPdf::23            0                       # What read queue length does an incoming req see
system.hmc_dev.mem_ctrls13.rdQLenPdf::24            0                       # What read queue length does an incoming req see
system.hmc_dev.mem_ctrls13.rdQLenPdf::25            0                       # What read queue length does an incoming req see
system.hmc_dev.mem_ctrls13.rdQLenPdf::26            0                       # What read queue length does an incoming req see
system.hmc_dev.mem_ctrls13.rdQLenPdf::27            0                       # What read queue length does an incoming req see
system.hmc_dev.mem_ctrls13.rdQLenPdf::28            0                       # What read queue length does an incoming req see
system.hmc_dev.mem_ctrls13.rdQLenPdf::29            0                       # What read queue length does an incoming req see
system.hmc_dev.mem_ctrls13.rdQLenPdf::30            0                       # What read queue length does an incoming req see
system.hmc_dev.mem_ctrls13.rdQLenPdf::31            0                       # What read queue length does an incoming req see
system.hmc_dev.mem_ctrls13.wrQLenPdf::0             0                       # What write queue length does an incoming req see
system.hmc_dev.mem_ctrls13.wrQLenPdf::1             0                       # What write queue length does an incoming req see
system.hmc_dev.mem_ctrls13.wrQLenPdf::2             0                       # What write queue length does an incoming req see
system.hmc_dev.mem_ctrls13.wrQLenPdf::3             0                       # What write queue length does an incoming req see
system.hmc_dev.mem_ctrls13.wrQLenPdf::4             0                       # What write queue length does an incoming req see
system.hmc_dev.mem_ctrls13.wrQLenPdf::5             0                       # What write queue length does an incoming req see
system.hmc_dev.mem_ctrls13.wrQLenPdf::6             0                       # What write queue length does an incoming req see
system.hmc_dev.mem_ctrls13.wrQLenPdf::7             0                       # What write queue length does an incoming req see
system.hmc_dev.mem_ctrls13.wrQLenPdf::8             0                       # What write queue length does an incoming req see
system.hmc_dev.mem_ctrls13.wrQLenPdf::9             0                       # What write queue length does an incoming req see
system.hmc_dev.mem_ctrls13.wrQLenPdf::10            0                       # What write queue length does an incoming req see
system.hmc_dev.mem_ctrls13.wrQLenPdf::11            0                       # What write queue length does an incoming req see
system.hmc_dev.mem_ctrls13.wrQLenPdf::12            0                       # What write queue length does an incoming req see
system.hmc_dev.mem_ctrls13.wrQLenPdf::13            0                       # What write queue length does an incoming req see
system.hmc_dev.mem_ctrls13.wrQLenPdf::14            0                       # What write queue length does an incoming req see
system.hmc_dev.mem_ctrls13.wrQLenPdf::15            0                       # What write queue length does an incoming req see
system.hmc_dev.mem_ctrls13.wrQLenPdf::16            0                       # What write queue length does an incoming req see
system.hmc_dev.mem_ctrls13.wrQLenPdf::17            0                       # What write queue length does an incoming req see
system.hmc_dev.mem_ctrls13.wrQLenPdf::18            0                       # What write queue length does an incoming req see
system.hmc_dev.mem_ctrls13.wrQLenPdf::19            0                       # What write queue length does an incoming req see
system.hmc_dev.mem_ctrls13.wrQLenPdf::20            0                       # What write queue length does an incoming req see
system.hmc_dev.mem_ctrls13.wrQLenPdf::21            0                       # What write queue length does an incoming req see
system.hmc_dev.mem_ctrls13.wrQLenPdf::22            0                       # What write queue length does an incoming req see
system.hmc_dev.mem_ctrls13.wrQLenPdf::23            0                       # What write queue length does an incoming req see
system.hmc_dev.mem_ctrls13.wrQLenPdf::24            0                       # What write queue length does an incoming req see
system.hmc_dev.mem_ctrls13.wrQLenPdf::25            0                       # What write queue length does an incoming req see
system.hmc_dev.mem_ctrls13.wrQLenPdf::26            0                       # What write queue length does an incoming req see
system.hmc_dev.mem_ctrls13.wrQLenPdf::27            0                       # What write queue length does an incoming req see
system.hmc_dev.mem_ctrls13.wrQLenPdf::28            0                       # What write queue length does an incoming req see
system.hmc_dev.mem_ctrls13.wrQLenPdf::29            0                       # What write queue length does an incoming req see
system.hmc_dev.mem_ctrls13.wrQLenPdf::30            0                       # What write queue length does an incoming req see
system.hmc_dev.mem_ctrls13.wrQLenPdf::31            0                       # What write queue length does an incoming req see
system.hmc_dev.mem_ctrls13.bytesReadDRAM            0                       # Total number of bytes read from DRAM
system.hmc_dev.mem_ctrls13.bytesReadWrQ             0                       # Total number of bytes read from write queue
system.hmc_dev.mem_ctrls13.bytesWritten             0                       # Total number of bytes written to DRAM
system.hmc_dev.mem_ctrls13.bytesReadSys             0                       # Total read bytes from the system interface side
system.hmc_dev.mem_ctrls13.bytesWrittenSys            0                       # Total written bytes from the system interface side
system.hmc_dev.mem_ctrls13.avgRdBW               0.00                       # Average DRAM read bandwidth in MiByte/s
system.hmc_dev.mem_ctrls13.avgWrBW               0.00                       # Average achieved write bandwidth in MiByte/s
system.hmc_dev.mem_ctrls13.avgRdBWSys            0.00                       # Average system read bandwidth in MiByte/s
system.hmc_dev.mem_ctrls13.avgWrBWSys            0.00                       # Average system write bandwidth in MiByte/s
system.hmc_dev.mem_ctrls13.peakBW            10000.00                       # Theoretical peak bandwidth in MiByte/s
system.hmc_dev.mem_ctrls13.busUtil               0.00                       # Data bus utilization in percentage
system.hmc_dev.mem_ctrls13.busUtilRead           0.00                       # Data bus utilization in percentage for reads
system.hmc_dev.mem_ctrls13.busUtilWrite          0.00                       # Data bus utilization in percentage for writes
system.hmc_dev.mem_ctrls13.totGap                   0                       # Total gap between requests
system.hmc_dev.mem_ctrls13.avgGap                 nan                       # Average gap between requests
system.hmc_dev.mem_ctrls13.pageHitRate            nan                       # Row buffer hit rate, read and write combined
system.hmc_dev.mem_ctrls13.rank0.actEnergy            0                       # Energy for activate commands per rank (pJ)
system.hmc_dev.mem_ctrls13.rank0.preEnergy            0                       # Energy for precharge commands per rank (pJ)
system.hmc_dev.mem_ctrls13.rank0.readEnergy            0                       # Energy for read commands per rank (pJ)
system.hmc_dev.mem_ctrls13.rank0.writeEnergy            0                       # Energy for write commands per rank (pJ)
system.hmc_dev.mem_ctrls13.rank0.refreshEnergy 152583045310.628876                       # Energy for refresh commands per rank (pJ)
system.hmc_dev.mem_ctrls13.rank0.actBackEnergy 25454929769.141457                       # Energy for active background per rank (pJ)
system.hmc_dev.mem_ctrls13.rank0.preBackEnergy 1608140359172.131104                       # Energy for precharge background per rank (pJ)
system.hmc_dev.mem_ctrls13.rank0.actPowerDownEnergy            0                       # Energy for active power-down per rank (pJ)
system.hmc_dev.mem_ctrls13.rank0.prePowerDownEnergy            0                       # Energy for precharge power-down per rank (pJ)
system.hmc_dev.mem_ctrls13.rank0.selfRefreshEnergy            0                       # Energy for self refresh per rank (pJ)
system.hmc_dev.mem_ctrls13.rank0.totalEnergy 1786178334187.850830                       # Total energy per rank (pJ)
system.hmc_dev.mem_ctrls13.rank0.averagePower    52.612799                       # Core power per rank (mW)
system.hmc_dev.mem_ctrls13.rank0.totalIdleTime            0                       # Total Idle time Per DRAM Rank
system.hmc_dev.mem_ctrls13.rank0.memoryStateTime::IDLE 33434890825500                       # Time in different power states
system.hmc_dev.mem_ctrls13.rank0.memoryStateTime::REF 514611039000                       # Time in different power states
system.hmc_dev.mem_ctrls13.rank0.memoryStateTime::SREF            0                       # Time in different power states
system.hmc_dev.mem_ctrls13.rank0.memoryStateTime::PRE_PDN            0                       # Time in different power states
system.hmc_dev.mem_ctrls13.rank0.memoryStateTime::ACT            0                       # Time in different power states
system.hmc_dev.mem_ctrls13.rank0.memoryStateTime::ACT_PDN            0                       # Time in different power states
system.hmc_dev.buffers22.pwrStateResidencyTicks::UNDEFINED 33949501864500                       # Cumulative time (in ticks) in various power states
system.hmc_dev.buffers23.pwrStateResidencyTicks::UNDEFINED 33949501864500                       # Cumulative time (in ticks) in various power states
system.hmc_dev.buffers20.pwrStateResidencyTicks::UNDEFINED 33949501864500                       # Cumulative time (in ticks) in various power states
system.hmc_dev.buffers21.pwrStateResidencyTicks::UNDEFINED 33949501864500                       # Cumulative time (in ticks) in various power states
system.hmc_dev.buffers26.pwrStateResidencyTicks::UNDEFINED 33949501864500                       # Cumulative time (in ticks) in various power states
system.hmc_dev.buffers27.pwrStateResidencyTicks::UNDEFINED 33949501864500                       # Cumulative time (in ticks) in various power states
system.hmc_dev.buffers24.pwrStateResidencyTicks::UNDEFINED 33949501864500                       # Cumulative time (in ticks) in various power states
system.hmc_dev.buffers25.pwrStateResidencyTicks::UNDEFINED 33949501864500                       # Cumulative time (in ticks) in various power states
system.hmc_dev.mem_ctrls10.pwrStateResidencyTicks::UNDEFINED 33949501864500                       # Cumulative time (in ticks) in various power states
system.hmc_dev.mem_ctrls10.priorityMinLatency 0.000000000000                       # per QoS priority minimum request to response latency (s)
system.hmc_dev.mem_ctrls10.priorityMaxLatency 0.000000000000                       # per QoS priority maximum request to response latency (s)
system.hmc_dev.mem_ctrls10.numReadWriteTurnArounds            0                       # Number of turnarounds from READ to WRITE
[...]
system.hmc_dev.mem_ctrls1.rdPerTurnAround::total        24999                       # Reads before turning the bus around for writes
system.hmc_dev.mem_ctrls1.wrPerTurnAround::samples        24999                       # Writes before turning the bus around for reads
system.hmc_dev.mem_ctrls1.wrPerTurnAround::mean           10                       # Writes before turning the bus around for reads
system.hmc_dev.mem_ctrls1.wrPerTurnAround::gmean    10.000000                       # Writes before turning the bus around for reads
system.hmc_dev.mem_ctrls1.wrPerTurnAround::10        24999    100.00%    100.00% # Writes before turning the bus around for reads
system.hmc_dev.mem_ctrls1.wrPerTurnAround::total        24999                       # Writes before turning the bus around for reads
system.hmc_dev.mem_ctrls1.bytesReadDRAM      32000000                       # Total number of bytes read from DRAM
system.hmc_dev.mem_ctrls1.bytesReadWrQ              0                       # Total number of bytes read from write queue
system.hmc_dev.mem_ctrls1.bytesWritten        7999680                       # Total number of bytes written to DRAM
system.hmc_dev.mem_ctrls1.bytesReadSys        8000000                       # Total read bytes from the system interface side
system.hmc_dev.mem_ctrls1.bytesWrittenSys      8000000                       # Total written bytes from the system interface side
system.hmc_dev.mem_ctrls1.avgRdBW                0.94                       # Average DRAM read bandwidth in MiByte/s
system.hmc_dev.mem_ctrls1.avgWrBW                0.24                       # Average achieved write bandwidth in MiByte/s
system.hmc_dev.mem_ctrls1.avgRdBWSys             0.24                       # Average system read bandwidth in MiByte/s
system.hmc_dev.mem_ctrls1.avgWrBWSys             0.24                       # Average system write bandwidth in MiByte/s
system.hmc_dev.mem_ctrls1.peakBW             10000.00                       # Theoretical peak bandwidth in MiByte/s
system.hmc_dev.mem_ctrls1.busUtil                0.01                       # Data bus utilization in percentage
system.hmc_dev.mem_ctrls1.busUtilRead            0.01                       # Data bus utilization in percentage for reads
system.hmc_dev.mem_ctrls1.busUtilWrite           0.00                       # Data bus utilization in percentage for writes
system.hmc_dev.mem_ctrls1.totGap         33733235998200                       # Total gap between requests
system.hmc_dev.mem_ctrls1.avgGap          16866618.00                       # Average gap between requests
system.hmc_dev.mem_ctrls1.masterReadBytes::.cpu.data      8000000                       # Per-master bytes read from memory
system.hmc_dev.mem_ctrls1.masterWriteBytes::.cpu.data      1999920                       # Per-master bytes write to memory
system.hmc_dev.mem_ctrls1.masterReadRate::.cpu.data 235644.105528551678                       # Per-master bytes read from memory rate (Bytes/sec)
system.hmc_dev.mem_ctrls1.masterWriteRate::.cpu.data 58908.669941082633                       # Per-master bytes write to memory rate (Bytes/sec)
system.hmc_dev.mem_ctrls1.masterReadAccesses::.cpu.data      1000000                       # Per-master read serviced memory accesses
system.hmc_dev.mem_ctrls1.masterWriteAccesses::.cpu.data      1000000                       # Per-master write serviced memory accesses
system.hmc_dev.mem_ctrls1.masterReadTotalLat::.cpu.data  23300000000                       # Per-master read total memory access latency
system.hmc_dev.mem_ctrls1.masterWriteTotalLat::.cpu.data 387923270476000                       # Per-master write total memory access latency
system.hmc_dev.mem_ctrls1.masterReadAvgLat::.cpu.data     23300.00                       # Per-master read average memory access latency
system.hmc_dev.mem_ctrls1.masterWriteAvgLat::.cpu.data 387923270.48                       # Per-master write average memory access latency
system.hmc_dev.mem_ctrls1.pageHitRate           15.50                       # Row buffer hit rate, read and write combined
system.hmc_dev.mem_ctrls1.rank0.actEnergy 581781398.403908                       # Energy for activate commands per rank (pJ)
system.hmc_dev.mem_ctrls1.rank0.preEnergy    291524448                       # Energy for precharge commands per rank (pJ)
system.hmc_dev.mem_ctrls1.rank0.readEnergy 571199999.994957                       # Energy for read commands per rank (pJ)
system.hmc_dev.mem_ctrls1.rank0.writeEnergy    104395824                       # Energy for write commands per rank (pJ)
system.hmc_dev.mem_ctrls1.rank0.refreshEnergy 152583045310.628876                       # Energy for refresh commands per rank (pJ)
system.hmc_dev.mem_ctrls1.rank0.actBackEnergy 29049178587.122379                       # Energy for active background per rank (pJ)
system.hmc_dev.mem_ctrls1.rank0.preBackEnergy 1605113623335.931885                       # Energy for precharge background per rank (pJ)
system.hmc_dev.mem_ctrls1.rank0.actPowerDownEnergy            0                       # Energy for active power-down per rank (pJ)
system.hmc_dev.mem_ctrls1.rank0.prePowerDownEnergy            0                       # Energy for precharge power-down per rank (pJ)
system.hmc_dev.mem_ctrls1.rank0.selfRefreshEnergy            0                       # Energy for self refresh per rank (pJ)
system.hmc_dev.mem_ctrls1.rank0.totalEnergy 1788294748836.884766                       # Total energy per rank (pJ)
system.hmc_dev.mem_ctrls1.rank0.averagePower    52.675140                       # Core power per rank (mW)
system.hmc_dev.mem_ctrls1.rank0.totalIdleTime            0                       # Total Idle time Per DRAM Rank
system.hmc_dev.mem_ctrls1.rank0.memoryStateTime::IDLE 33363930502100                       # Time in different power states
system.hmc_dev.mem_ctrls1.rank0.memoryStateTime::REF 514611039000                       # Time in different power states
system.hmc_dev.mem_ctrls1.rank0.memoryStateTime::SREF            0                       # Time in different power states
system.hmc_dev.mem_ctrls1.rank0.memoryStateTime::PRE_PDN            0                       # Time in different power states
system.hmc_dev.mem_ctrls1.rank0.memoryStateTime::ACT  70960323400                       # Time in different power states
system.hmc_dev.mem_ctrls1.rank0.memoryStateTime::ACT_PDN            0                       # Time in different power states
system.hmc_dev.buffers79.pwrStateResidencyTicks::UNDEFINED 33949501864500                       # Cumulative time (in ticks) in various power states
system.hmc_dev.buffers78.pwrStateResidencyTicks::UNDEFINED 33949501864500                       # Cumulative time (in ticks) in various power states
system.hmc_dev.buffers75.pwrStateResidencyTicks::UNDEFINED 33949501864500                       # Cumulative time (in ticks) in various power states
system.hmc_dev.buffers74.pwrStateResidencyTicks::UNDEFINED 33949501864500                       # Cumulative time (in ticks) in various power states
system.hmc_dev.buffers77.pwrStateResidencyTicks::UNDEFINED 33949501864500                       # Cumulative time (in ticks) in various power states
system.hmc_dev.buffers218.pwrStateResidencyTicks::UNDEFINED 33949501864500                       # Cumulative time (in ticks) in various power states
system.hmc_dev.buffers71.pwrStateResidencyTicks::UNDEFINED 33949501864500                       # Cumulative time (in ticks) in various power states
system.hmc_dev.buffers70.pwrStateResidencyTicks::UNDEFINED 33949501864500                       # Cumulative time (in ticks) in various power states
system.hmc_dev.buffers73.pwrStateResidencyTicks::UNDEFINED 33949501864500                       # Cumulative time (in ticks) in various power states
system.hmc_dev.buffers72.pwrStateResidencyTicks::UNDEFINED 33949501864500                       # Cumulative time (in ticks) in various power states
system.hmc_dev.buffers99.pwrStateResidencyTicks::UNDEFINED 33949501864500                       # Cumulative time (in ticks) in various power states
system.hmc_dev.buffers82.pwrStateResidencyTicks::UNDEFINED 33949501864500                       # Cumulative time (in ticks) in various power states
system.hmc_dev.buffers221.pwrStateResidencyTicks::UNDEFINED 33949501864500                       # Cumulative time (in ticks) in various power states
system.hmc_dev.buffers220.pwrStateResidencyTicks::UNDEFINED 33949501864500                       # Cumulative time (in ticks) in various power states
system.hmc_dev.xbar7.pwrStateResidencyTicks::UNDEFINED 33949501864500                       # Cumulative time (in ticks) in various power states
system.hmc_dev.xbar7.trans_dist::ReadReq      1000000                       # Transaction distribution
system.hmc_dev.xbar7.trans_dist::ReadResp      1000000                       # Transaction distribution
system.hmc_dev.xbar7.trans_dist::WriteReq      1000000                       # Transaction distribution
system.hmc_dev.xbar7.trans_dist::WriteResp      1000000                       # Transaction distribution
system.hmc_dev.xbar7.pkt_count_system.hmc_dev.buffers066.master::system.hmc_dev.mem_ctrls07.port      4000000                       # Packet count per connected master and slave (bytes)
system.hmc_dev.xbar7.pkt_count_system.hmc_dev.buffers066.master::total      4000000                       # Packet count per connected master and slave (bytes)
system.hmc_dev.xbar7.pkt_count::total         4000000                       # Packet count per connected master and slave (bytes)
system.hmc_dev.xbar7.pkt_size_system.hmc_dev.buffers066.master::system.hmc_dev.mem_ctrls07.port     16000000                       # Cumulative packet size per connected master and slave (bytes)
system.hmc_dev.xbar7.pkt_size_system.hmc_dev.buffers066.master::total     16000000                       # Cumulative packet size per connected master and slave (bytes)
system.hmc_dev.xbar7.pkt_size::total         16000000                       # Cumulative packet size per connected master and slave (bytes)
system.hmc_dev.xbar7.clk_domain.clock            1000                       # Clock period in ticks
system.hmc_dev.xbar7.clk_domain.voltage_domain.voltage            1                       # Voltage in Volts
system.hmc_dev.xbar7.reqLayer15.occupancy   3675376000                       # Layer occupancy (ticks)
system.hmc_dev.xbar7.reqLayer15.utilization          0.0                       # Layer utilization (%)
system.hmc_dev.xbar7.respLayer4.occupancy   3699993000                       # Layer occupancy (ticks)
system.hmc_dev.xbar7.respLayer4.utilization          0.0                       # Layer utilization (%)
system.hmc_dev.buffers171.pwrStateResidencyTicks::UNDEFINED 33949501864500                       # Cumulative time (in ticks) in various power states
system.hmc_dev.buffers170.pwrStateResidencyTicks::UNDEFINED 33949501864500                       # Cumulative time (in ticks) in various power states
system.hmc_dev.buffers173.pwrStateResidencyTicks::UNDEFINED 33949501864500                       # Cumulative time (in ticks) in various power states
system.hmc_dev.buffers172.pwrStateResidencyTicks::UNDEFINED 33949501864500                       # Cumulative time (in ticks) in various power states
system.hmc_dev.buffers175.pwrStateResidencyTicks::UNDEFINED 33949501864500                       # Cumulative time (in ticks) in various power states
system.hmc_dev.buffers174.pwrStateResidencyTicks::UNDEFINED 33949501864500                       # Cumulative time (in ticks) in various power states
system.hmc_dev.buffers177.pwrStateResidencyTicks::UNDEFINED 33949501864500                       # Cumulative time (in ticks) in various power states
system.hmc_dev.buffers176.pwrStateResidencyTicks::UNDEFINED 33949501864500                       # Cumulative time (in ticks) in various power states
system.hmc_dev.buffers179.pwrStateResidencyTicks::UNDEFINED 33949501864500                       # Cumulative time (in ticks) in various power states
system.hmc_dev.buffers178.pwrStateResidencyTicks::UNDEFINED 33949501864500                       # Cumulative time (in ticks) in various power states
system.hmc_dev.buffers68.pwrStateResidencyTicks::UNDEFINED 33949501864500                       # Cumulative time (in ticks) in various power states
system.hmc_dev.buffers69.pwrStateResidencyTicks::UNDEFINED 33949501864500                       # Cumulative time (in ticks) in various power states
system.hmc_dev.buffers66.pwrStateResidencyTicks::UNDEFINED 33949501864500                       # Cumulative time (in ticks) in various power states
system.hmc_dev.buffers67.pwrStateResidencyTicks::UNDEFINED 33949501864500                       # Cumulative time (in ticks) in various power states
system.hmc_dev.buffers64.pwrStateResidencyTicks::UNDEFINED 33949501864500                       # Cumulative time (in ticks) in various power states
system.hmc_dev.buffers65.pwrStateResidencyTicks::UNDEFINED 33949501864500                       # Cumulative time (in ticks) in various power states
system.hmc_dev.buffers62.pwrStateResidencyTicks::UNDEFINED 33949501864500                       # Cumulative time (in ticks) in various power states
system.hmc_dev.buffers63.pwrStateResidencyTicks::UNDEFINED 33949501864500                       # Cumulative time (in ticks) in various power states
system.hmc_dev.buffers60.pwrStateResidencyTicks::UNDEFINED 33949501864500                       # Cumulative time (in ticks) in various power states
system.hmc_dev.buffers61.pwrStateResidencyTicks::UNDEFINED 33949501864500                       # Cumulative time (in ticks) in various power states
system.hmc_dev.buffers229.pwrStateResidencyTicks::UNDEFINED 33949501864500                       # Cumulative time (in ticks) in various power states
system.hmc_dev.buffers228.pwrStateResidencyTicks::UNDEFINED 33949501864500                       # Cumulative time (in ticks) in various power states
system.hmc_dev.xbar9.pwrStateResidencyTicks::UNDEFINED 33949501864500                       # Cumulative time (in ticks) in various power states
system.hmc_dev.xbar9.trans_dist::ReadReq      1000000                       # Transaction distribution
system.hmc_dev.xbar9.trans_dist::ReadResp      1000000                       # Transaction distribution
system.hmc_dev.xbar9.trans_dist::WriteReq      1000000                       # Transaction distribution
system.hmc_dev.xbar9.trans_dist::WriteResp      1000000                       # Transaction distribution
system.hmc_dev.xbar9.pkt_count_system.hmc_dev.buffers128.master::system.hmc_dev.mem_ctrls09.port      4000000                       # Packet count per connected master and slave (bytes)
system.hmc_dev.xbar9.pkt_count_system.hmc_dev.buffers128.master::total      4000000                       # Packet count per connected master and slave (bytes)
system.hmc_dev.xbar9.pkt_count::total         4000000                       # Packet count per connected master and slave (bytes)
system.hmc_dev.xbar9.pkt_size_system.hmc_dev.buffers128.master::system.hmc_dev.mem_ctrls09.port     16000000                       # Cumulative packet size per connected master and slave (bytes)
system.hmc_dev.xbar9.pkt_size_system.hmc_dev.buffers128.master::total     16000000                       # Cumulative packet size per connected master and slave (bytes)
system.hmc_dev.xbar9.pkt_size::total         16000000                       # Cumulative packet size per connected master and slave (bytes)
system.hmc_dev.xbar9.clk_domain.clock            1000                       # Clock period in ticks
system.hmc_dev.xbar9.clk_domain.voltage_domain.voltage            1                       # Voltage in Volts
system.hmc_dev.xbar9.reqLayer15.occupancy   3460629200                       # Layer occupancy (ticks)
system.hmc_dev.xbar9.reqLayer15.utilization          0.0                       # Layer utilization (%)
system.hmc_dev.xbar9.respLayer8.occupancy   3699997800                       # Layer occupancy (ticks)
system.hmc_dev.xbar9.respLayer8.utilization          0.0                       # Layer utilization (%)
system.hmc_dev.buffers144.pwrStateResidencyTicks::UNDEFINED 33949501864500                       # Cumulative time (in ticks) in various power states
system.hmc_dev.buffers145.pwrStateResidencyTicks::UNDEFINED 33949501864500                       # Cumulative time (in ticks) in various power states
system.hmc_dev.buffers146.pwrStateResidencyTicks::UNDEFINED 33949501864500                       # Cumulative time (in ticks) in various power states
system.hmc_dev.buffers147.pwrStateResidencyTicks::UNDEFINED 33949501864500                       # Cumulative time (in ticks) in various power states
system.hmc_dev.buffers140.pwrStateResidencyTicks::UNDEFINED 33949501864500                       # Cumulative time (in ticks) in various power states
system.hmc_dev.buffers141.pwrStateResidencyTicks::UNDEFINED 33949501864500                       # Cumulative time (in ticks) in various power states
system.hmc_dev.buffers142.pwrStateResidencyTicks::UNDEFINED 33949501864500                       # Cumulative time (in ticks) in various power states
system.hmc_dev.buffers143.pwrStateResidencyTicks::UNDEFINED 33949501864500                       # Cumulative time (in ticks) in various power states
system.hmc_dev.buffers148.pwrStateResidencyTicks::UNDEFINED 33949501864500                       # Cumulative time (in ticks) in various power states
system.hmc_dev.buffers149.pwrStateResidencyTicks::UNDEFINED 33949501864500                       # Cumulative time (in ticks) in various power states
system.hmc_host.seriallink3.pwrStateResidencyTicks::UNDEFINED 33949501864500                       # Cumulative time (in ticks) in various power states
system.hmc_host.seriallink3.clk_domain.clock         1600                       # Clock period in ticks
system.hmc_host.seriallink3.clk_domain.voltage_domain.voltage            1                       # Voltage in Volts
system.hmc_host.seriallink2.pwrStateResidencyTicks::UNDEFINED 33949501864500                       # Cumulative time (in ticks) in various power states
system.hmc_host.seriallink2.clk_domain.clock         1600                       # Clock period in ticks
system.hmc_host.seriallink2.clk_domain.voltage_domain.voltage            1                       # Voltage in Volts
system.hmc_host.seriallink1.pwrStateResidencyTicks::UNDEFINED 33949501864500                       # Cumulative time (in ticks) in various power states
system.hmc_host.seriallink1.clk_domain.clock         1600                       # Clock period in ticks
system.hmc_host.seriallink1.clk_domain.voltage_domain.voltage            1                       # Voltage in Volts
system.hmc_host.seriallink0.pwrStateResidencyTicks::UNDEFINED 33949501864500                       # Cumulative time (in ticks) in various power states
system.hmc_host.seriallink0.clk_domain.clock         1600                       # Clock period in ticks
system.hmc_host.seriallink0.clk_domain.voltage_domain.voltage            1                       # Voltage in Volts
system.cpu_voltage_domain.voltage                   1                       # Voltage in Volts
system.cpu_clk_domain.clock                       500                       # Clock period in ticks
system.cpu.numPwrStateTransitions                   1                       # Number of power state transitions
system.cpu.pwrStateResidencyTicks::ON    33949501864500                       # Cumulative time (in ticks) in various power states
system.cpu.dtb.walker.pwrStateResidencyTicks::UNDEFINED 33949501864500                       # Cumulative time (in ticks) in various power states
system.cpu.interrupts.clk_domain.clock           8000                       # Clock period in ticks
system.cpu.itb.walker.pwrStateResidencyTicks::UNDEFINED 33949501864500                       # Cumulative time (in ticks) in various power states

---------- End Simulation Statistics   ----------
