
---------- Begin Simulation Statistics ----------
final_tick                               176277906288000                       # Number of ticks from beginning of simulation (restored from checkpoints and never reset)
host_inst_rate                                 121492                       # Simulator instruction rate (inst/s)
host_mem_usage                                4678352                       # Number of bytes of host memory used
host_op_rate                                   243475                       # Simulator op (including micro ops) rate (op/s)
host_seconds                                 19950.53                       # Real time elapsed on the host
host_tick_rate                             8835751322                       # Simulator tick rate (ticks/s)
sim_freq                                 1000000000000                       # Frequency of simulated ticks
sim_insts                                  2423825301                       # Number of instructions simulated
sim_ops                                    4857464717                       # Number of ops (including micro ops) simulated
sim_seconds                                176.277906                       # Number of seconds simulated
sim_ticks                                176277906288000                       # Number of ticks simulated
system.cpu00.Branches                            1218                       # Number of branches fetched
system.cpu00.committedInsts                      5411                       # Number of instructions committed
system.cpu00.committedOps                        9801                       # Number of ops (including micro ops) committed
system.cpu00.dtb.rdAccesses                      1056                       # TLB accesses on read requests
system.cpu00.dtb.rdMisses                           9                       # TLB misses on read requests
system.cpu00.dtb.wrAccesses                       936                       # TLB accesses on write requests
system.cpu00.dtb.wrMisses                           7                       # TLB misses on write requests
system.cpu00.idle_fraction                   0.999987                       # Percentage of idle cycles
system.cpu00.itb.rdAccesses                         0                       # TLB accesses on read requests
system.cpu00.itb.rdMisses                           0                       # TLB misses on read requests
system.cpu00.itb.wrAccesses                      6902                       # TLB accesses on write requests
system.cpu00.itb.wrMisses                          31                       # TLB misses on write requests
system.cpu00.not_idle_fraction               0.000013                       # Percentage of non-idle cycles
system.cpu00.numCycles                        4561706                       # number of cpu cycles simulated
system.cpu00.numWorkItemsCompleted                  0                       # number of work items this cpu completed
system.cpu00.numWorkItemsStarted                    0                       # number of work items this cpu started
system.cpu00.num_busy_cycles                59.023737                       # Number of busy cycles
system.cpu00.num_cc_register_reads               6541                       # number of times the CC registers were read
system.cpu00.num_cc_register_writes              3560                       # number of times the CC registers were written
system.cpu00.num_conditional_control_insts          908                       # number of instructions that are conditional controls
system.cpu00.num_fp_alu_accesses                    0                       # Number of float alu accesses
system.cpu00.num_fp_insts                           0                       # number of float instructions
system.cpu00.num_fp_register_reads                  0                       # number of times the floating registers were read
system.cpu00.num_fp_register_writes                 0                       # number of times the floating registers were written
system.cpu00.num_func_calls                       211                       # number of times a function call or return occured
system.cpu00.num_idle_cycles             4561646.976263                       # Number of idle cycles
system.cpu00.num_int_alu_accesses                9695                       # Number of integer alu accesses
system.cpu00.num_int_insts                       9695                       # number of integer instructions
system.cpu00.num_int_register_reads             18412                       # number of times the integer registers were read
system.cpu00.num_int_register_writes             7568                       # number of times the integer registers were written
system.cpu00.num_load_insts                      1056                       # Number of load instructions
system.cpu00.num_mem_refs                        1992                       # number of memory refs
system.cpu00.num_store_insts                      936                       # Number of store instructions
system.cpu00.num_vec_alu_accesses                   0                       # Number of vector alu accesses
system.cpu00.num_vec_insts                          0                       # number of vector instructions
system.cpu00.num_vec_register_reads                 0                       # number of times the vector registers were read
system.cpu00.num_vec_register_writes                0                       # number of times the vector registers were written
system.cpu00.op_class::No_OpClass                   1      0.01%      0.01% # Class of executed instruction
system.cpu00.op_class::IntAlu                    7798     79.56%     79.57% # Class of executed instruction
system.cpu00.op_class::IntMult                      3      0.03%     79.60% # Class of executed instruction
system.cpu00.op_class::IntDiv                       7      0.07%     79.68% # Class of executed instruction
system.cpu00.op_class::FloatAdd                     0      0.00%     79.68% # Class of executed instruction
system.cpu00.op_class::FloatCmp                     0      0.00%     79.68% # Class of executed instruction
system.cpu00.op_class::FloatCvt                     0      0.00%     79.68% # Class of executed instruction
system.cpu00.op_class::FloatMult                    0      0.00%     79.68% # Class of executed instruction
system.cpu00.op_class::FloatMultAcc                 0      0.00%     79.68% # Class of executed instruction
system.cpu00.op_class::FloatDiv                     0      0.00%     79.68% # Class of executed instruction
system.cpu00.op_class::FloatMisc                    0      0.00%     79.68% # Class of executed instruction
system.cpu00.op_class::FloatSqrt                    0      0.00%     79.68% # Class of executed instruction
system.cpu00.op_class::SimdAdd                      0      0.00%     79.68% # Class of executed instruction
system.cpu00.op_class::SimdAddAcc                   0      0.00%     79.68% # Class of executed instruction
system.cpu00.op_class::SimdAlu                      0      0.00%     79.68% # Class of executed instruction
system.cpu00.op_class::SimdCmp                      0      0.00%     79.68% # Class of executed instruction
system.cpu00.op_class::SimdCvt                      0      0.00%     79.68% # Class of executed instruction
system.cpu00.op_class::SimdMisc                     0      0.00%     79.68% # Class of executed instruction
system.cpu00.op_class::SimdMult                     0      0.00%     79.68% # Class of executed instruction
system.cpu00.op_class::SimdMultAcc                  0      0.00%     79.68% # Class of executed instruction
system.cpu00.op_class::SimdShift                    0      0.00%     79.68% # Class of executed instruction
system.cpu00.op_class::SimdShiftAcc                 0      0.00%     79.68% # Class of executed instruction
system.cpu00.op_class::SimdDiv                      0      0.00%     79.68% # Class of executed instruction
system.cpu00.op_class::SimdSqrt                     0      0.00%     79.68% # Class of executed instruction
system.cpu00.op_class::SimdFloatAdd                 0      0.00%     79.68% # Class of executed instruction
system.cpu00.op_class::SimdFloatAlu                 0      0.00%     79.68% # Class of executed instruction
system.cpu00.op_class::SimdFloatCmp                 0      0.00%     79.68% # Class of executed instruction
system.cpu00.op_class::SimdFloatCvt                 0      0.00%     79.68% # Class of executed instruction
system.cpu00.op_class::SimdFloatDiv                 0      0.00%     79.68% # Class of executed instruction
system.cpu00.op_class::SimdFloatMisc                0      0.00%     79.68% # Class of executed instruction
system.cpu00.op_class::SimdFloatMult                0      0.00%     79.68% # Class of executed instruction
system.cpu00.op_class::SimdFloatMultAcc             0      0.00%     79.68% # Class of executed instruction
system.cpu00.op_class::SimdFloatSqrt                0      0.00%     79.68% # Class of executed instruction
system.cpu00.op_class::SimdReduceAdd                0      0.00%     79.68% # Class of executed instruction
system.cpu00.op_class::SimdReduceAlu                0      0.00%     79.68% # Class of executed instruction
system.cpu00.op_class::SimdReduceCmp                0      0.00%     79.68% # Class of executed instruction
system.cpu00.op_class::SimdFloatReduceAdd            0      0.00%     79.68% # Class of executed instruction
system.cpu00.op_class::SimdFloatReduceCmp            0      0.00%     79.68% # Class of executed instruction
system.cpu00.op_class::SimdAes                      0      0.00%     79.68% # Class of executed instruction
system.cpu00.op_class::SimdAesMix                   0      0.00%     79.68% # Class of executed instruction
system.cpu00.op_class::SimdSha1Hash                 0      0.00%     79.68% # Class of executed instruction
system.cpu00.op_class::SimdSha1Hash2                0      0.00%     79.68% # Class of executed instruction
system.cpu00.op_class::SimdSha256Hash               0      0.00%     79.68% # Class of executed instruction
system.cpu00.op_class::SimdSha256Hash2              0      0.00%     79.68% # Class of executed instruction
system.cpu00.op_class::SimdShaSigma2                0      0.00%     79.68% # Class of executed instruction
system.cpu00.op_class::SimdShaSigma3                0      0.00%     79.68% # Class of executed instruction
system.cpu00.op_class::SimdPredAlu                  0      0.00%     79.68% # Class of executed instruction
system.cpu00.op_class::MemRead                   1056     10.77%     90.45% # Class of executed instruction
system.cpu00.op_class::MemWrite                   936      9.55%    100.00% # Class of executed instruction
system.cpu00.op_class::FloatMemRead                 0      0.00%    100.00% # Class of executed instruction
system.cpu00.op_class::FloatMemWrite                0      0.00%    100.00% # Class of executed instruction
system.cpu00.op_class::IprAccess                    0      0.00%    100.00% # Class of executed instruction
system.cpu00.op_class::InstPrefetch                 0      0.00%    100.00% # Class of executed instruction
system.cpu00.op_class::total                     9801                       # Class of executed instruction
system.cpu00.workload.numSyscalls                  11                       # Number of system calls
system.cpu01.Branches                       546903246                       # Number of branches fetched
system.cpu01.committedInsts                2423744136                       # Number of instructions committed
system.cpu01.committedOps                  4857317702                       # Number of ops (including micro ops) committed
system.cpu01.dtb.rdAccesses                 756524817                       # TLB accesses on read requests
system.cpu01.dtb.rdMisses                       19086                       # TLB misses on read requests
system.cpu01.dtb.wrAccesses                 457700018                       # TLB accesses on write requests
system.cpu01.dtb.wrMisses                        8630                       # TLB misses on write requests
system.cpu01.idle_fraction                   0.000000                       # Percentage of idle cycles
system.cpu01.itb.rdAccesses                         0                       # TLB accesses on read requests
system.cpu01.itb.rdMisses                           0                       # TLB misses on read requests
system.cpu01.itb.wrAccesses                3199969891                       # TLB accesses on write requests
system.cpu01.itb.wrMisses                         310                       # TLB misses on write requests
system.cpu01.not_idle_fraction               1.000000                       # Percentage of non-idle cycles
system.cpu01.numCycles                   352555812576                       # number of cpu cycles simulated
system.cpu01.numWorkItemsCompleted                  0                       # number of work items this cpu completed
system.cpu01.numWorkItemsStarted                    0                       # number of work items this cpu started
system.cpu01.num_busy_cycles             352555812575.997986                       # Number of busy cycles
system.cpu01.num_cc_register_reads         2311608083                       # number of times the CC registers were read
system.cpu01.num_cc_register_writes        1253451997                       # number of times the CC registers were written
system.cpu01.num_conditional_control_insts    327318301                       # number of instructions that are conditional controls
system.cpu01.num_fp_alu_accesses             69060252                       # Number of float alu accesses
system.cpu01.num_fp_insts                    69060252                       # number of float instructions
system.cpu01.num_fp_register_reads          111481490                       # number of times the floating registers were read
system.cpu01.num_fp_register_writes          60154436                       # number of times the floating registers were written
system.cpu01.num_func_calls                 133452268                       # number of times a function call or return occured
system.cpu01.num_idle_cycles                 0.001996                       # Number of idle cycles
system.cpu01.num_int_alu_accesses          4781744785                       # Number of integer alu accesses
system.cpu01.num_int_insts                 4781744785                       # number of integer instructions
system.cpu01.num_int_register_reads        9884679844                       # number of times the integer registers were read
system.cpu01.num_int_register_writes       3891564804                       # number of times the integer registers were written
system.cpu01.num_load_insts                 755900411                       # Number of load instructions
system.cpu01.num_mem_refs                  1213183863                       # number of memory refs
system.cpu01.num_store_insts                457283452                       # Number of store instructions
system.cpu01.num_vec_alu_accesses                   0                       # Number of vector alu accesses
system.cpu01.num_vec_insts                          0                       # number of vector instructions
system.cpu01.num_vec_register_reads                 0                       # number of times the vector registers were read
system.cpu01.num_vec_register_writes                0                       # number of times the vector registers were written
system.cpu01.op_class::No_OpClass            29147163      0.60%      0.60% # Class of executed instruction
system.cpu01.op_class::IntAlu              3505652961     72.17%     72.77% # Class of executed instruction
system.cpu01.op_class::IntMult                5046794      0.10%     72.88% # Class of executed instruction
system.cpu01.op_class::IntDiv                53899303      1.11%     73.99% # Class of executed instruction
system.cpu01.op_class::FloatAdd               3211005      0.07%     74.05% # Class of executed instruction
system.cpu01.op_class::FloatCmp                     0      0.00%     74.05% # Class of executed instruction
system.cpu01.op_class::FloatCvt                  2640      0.00%     74.05% # Class of executed instruction
system.cpu01.op_class::FloatMult                    0      0.00%     74.05% # Class of executed instruction
system.cpu01.op_class::FloatMultAcc                 0      0.00%     74.05% # Class of executed instruction
system.cpu01.op_class::FloatDiv                     0      0.00%     74.05% # Class of executed instruction
system.cpu01.op_class::FloatMisc                    0      0.00%     74.05% # Class of executed instruction
system.cpu01.op_class::FloatSqrt                    0      0.00%     74.05% # Class of executed instruction
system.cpu01.op_class::SimdAdd                4844354      0.10%     74.15% # Class of executed instruction
system.cpu01.op_class::SimdAddAcc                   0      0.00%     74.15% # Class of executed instruction
system.cpu01.op_class::SimdAlu                7855413      0.16%     74.31% # Class of executed instruction
system.cpu01.op_class::SimdCmp                      6      0.00%     74.31% # Class of executed instruction
system.cpu01.op_class::SimdCvt               11903892      0.25%     74.56% # Class of executed instruction
system.cpu01.op_class::SimdMisc              12528602      0.26%     74.82% # Class of executed instruction
system.cpu01.op_class::SimdMult                     0      0.00%     74.82% # Class of executed instruction
system.cpu01.op_class::SimdMultAcc                  0      0.00%     74.82% # Class of executed instruction
system.cpu01.op_class::SimdShift              6473967      0.13%     74.95% # Class of executed instruction
system.cpu01.op_class::SimdShiftAcc                 0      0.00%     74.95% # Class of executed instruction
system.cpu01.op_class::SimdDiv                      0      0.00%     74.95% # Class of executed instruction
system.cpu01.op_class::SimdSqrt                     0      0.00%     74.95% # Class of executed instruction
system.cpu01.op_class::SimdFloatAdd            793752      0.02%     74.97% # Class of executed instruction
system.cpu01.op_class::SimdFloatAlu                 0      0.00%     74.97% # Class of executed instruction
system.cpu01.op_class::SimdFloatCmp                 0      0.00%     74.97% # Class of executed instruction
system.cpu01.op_class::SimdFloatCvt           1426623      0.03%     75.00% # Class of executed instruction
system.cpu01.op_class::SimdFloatDiv           1268116      0.03%     75.02% # Class of executed instruction
system.cpu01.op_class::SimdFloatMisc                0      0.00%     75.02% # Class of executed instruction
system.cpu01.op_class::SimdFloatMult            79248      0.00%     75.02% # Class of executed instruction
system.cpu01.op_class::SimdFloatMultAcc             0      0.00%     75.02% # Class of executed instruction
system.cpu01.op_class::SimdFloatSqrt                0      0.00%     75.02% # Class of executed instruction
system.cpu01.op_class::SimdReduceAdd                0      0.00%     75.02% # Class of executed instruction
system.cpu01.op_class::SimdReduceAlu                0      0.00%     75.02% # Class of executed instruction
system.cpu01.op_class::SimdReduceCmp                0      0.00%     75.02% # Class of executed instruction
system.cpu01.op_class::SimdFloatReduceAdd            0      0.00%     75.02% # Class of executed instruction
system.cpu01.op_class::SimdFloatReduceCmp            0      0.00%     75.02% # Class of executed instruction
system.cpu01.op_class::SimdAes                      0      0.00%     75.02% # Class of executed instruction
system.cpu01.op_class::SimdAesMix                   0      0.00%     75.02% # Class of executed instruction
system.cpu01.op_class::SimdSha1Hash                 0      0.00%     75.02% # Class of executed instruction
system.cpu01.op_class::SimdSha1Hash2                0      0.00%     75.02% # Class of executed instruction
system.cpu01.op_class::SimdSha256Hash               0      0.00%     75.02% # Class of executed instruction
system.cpu01.op_class::SimdSha256Hash2              0      0.00%     75.02% # Class of executed instruction
system.cpu01.op_class::SimdShaSigma2                0      0.00%     75.02% # Class of executed instruction
system.cpu01.op_class::SimdShaSigma3                0      0.00%     75.02% # Class of executed instruction
system.cpu01.op_class::SimdPredAlu                  0      0.00%     75.02% # Class of executed instruction
system.cpu01.op_class::MemRead              741691644     15.27%     90.29% # Class of executed instruction
system.cpu01.op_class::MemWrite             455455140      9.38%     99.67% # Class of executed instruction
system.cpu01.op_class::FloatMemRead          14208767      0.29%     99.96% # Class of executed instruction
system.cpu01.op_class::FloatMemWrite          1828312      0.04%    100.00% # Class of executed instruction
system.cpu01.op_class::IprAccess                    0      0.00%    100.00% # Class of executed instruction
system.cpu01.op_class::InstPrefetch                 0      0.00%    100.00% # Class of executed instruction
system.cpu01.op_class::total               4857317702                       # Class of executed instruction
system.cpu01.workload.numSyscalls                2070                       # Number of system calls
system.cpu02.Branches                            1218                       # Number of branches fetched
system.cpu02.committedInsts                      5411                       # Number of instructions committed
system.cpu02.committedOps                        9801                       # Number of ops (including micro ops) committed
system.cpu02.dtb.rdAccesses                      1056                       # TLB accesses on read requests
system.cpu02.dtb.rdMisses                           9                       # TLB misses on read requests
system.cpu02.dtb.wrAccesses                       936                       # TLB accesses on write requests
system.cpu02.dtb.wrMisses                           7                       # TLB misses on write requests
system.cpu02.idle_fraction                   0.999987                       # Percentage of idle cycles
system.cpu02.itb.rdAccesses                         0                       # TLB accesses on read requests
system.cpu02.itb.rdMisses                           0                       # TLB misses on read requests
system.cpu02.itb.wrAccesses                      6902                       # TLB accesses on write requests
system.cpu02.itb.wrMisses                          31                       # TLB misses on write requests
system.cpu02.not_idle_fraction               0.000013                       # Percentage of non-idle cycles
system.cpu02.numCycles                        4624852                       # number of cpu cycles simulated
system.cpu02.numWorkItemsCompleted                  0                       # number of work items this cpu completed
system.cpu02.numWorkItemsStarted                    0                       # number of work items this cpu started
system.cpu02.num_busy_cycles                60.669135                       # Number of busy cycles
system.cpu02.num_cc_register_reads               6541                       # number of times the CC registers were read
system.cpu02.num_cc_register_writes              3560                       # number of times the CC registers were written
system.cpu02.num_conditional_control_insts          908                       # number of instructions that are conditional controls
system.cpu02.num_fp_alu_accesses                    0                       # Number of float alu accesses
system.cpu02.num_fp_insts                           0                       # number of float instructions
system.cpu02.num_fp_register_reads                  0                       # number of times the floating registers were read
system.cpu02.num_fp_register_writes                 0                       # number of times the floating registers were written
system.cpu02.num_func_calls                       211                       # number of times a function call or return occured
system.cpu02.num_idle_cycles             4624791.330865                       # Number of idle cycles
system.cpu02.num_int_alu_accesses                9695                       # Number of integer alu accesses
system.cpu02.num_int_insts                       9695                       # number of integer instructions
system.cpu02.num_int_register_reads             18412                       # number of times the integer registers were read
system.cpu02.num_int_register_writes             7568                       # number of times the integer registers were written
system.cpu02.num_load_insts                      1056                       # Number of load instructions
system.cpu02.num_mem_refs                        1992                       # number of memory refs
system.cpu02.num_store_insts                      936                       # Number of store instructions
system.cpu02.num_vec_alu_accesses                   0                       # Number of vector alu accesses
system.cpu02.num_vec_insts                          0                       # number of vector instructions
system.cpu02.num_vec_register_reads                 0                       # number of times the vector registers were read
system.cpu02.num_vec_register_writes                0                       # number of times the vector registers were written
system.cpu02.op_class::No_OpClass                   1      0.01%      0.01% # Class of executed instruction
system.cpu02.op_class::IntAlu                    7798     79.56%     79.57% # Class of executed instruction
system.cpu02.op_class::IntMult                      3      0.03%     79.60% # Class of executed instruction
system.cpu02.op_class::IntDiv                       7      0.07%     79.68% # Class of executed instruction
system.cpu02.op_class::FloatAdd                     0      0.00%     79.68% # Class of executed instruction
system.cpu02.op_class::FloatCmp                     0      0.00%     79.68% # Class of executed instruction
system.cpu02.op_class::FloatCvt                     0      0.00%     79.68% # Class of executed instruction
system.cpu02.op_class::FloatMult                    0      0.00%     79.68% # Class of executed instruction
system.cpu02.op_class::FloatMultAcc                 0      0.00%     79.68% # Class of executed instruction
system.cpu02.op_class::FloatDiv                     0      0.00%     79.68% # Class of executed instruction
system.cpu02.op_class::FloatMisc                    0      0.00%     79.68% # Class of executed instruction
system.cpu02.op_class::FloatSqrt                    0      0.00%     79.68% # Class of executed instruction
system.cpu02.op_class::SimdAdd                      0      0.00%     79.68% # Class of executed instruction
system.cpu02.op_class::SimdAddAcc                   0      0.00%     79.68% # Class of executed instruction
system.cpu02.op_class::SimdAlu                      0      0.00%     79.68% # Class of executed instruction
system.cpu02.op_class::SimdCmp                      0      0.00%     79.68% # Class of executed instruction
system.cpu02.op_class::SimdCvt                      0      0.00%     79.68% # Class of executed instruction
system.cpu02.op_class::SimdMisc                     0      0.00%     79.68% # Class of executed instruction
system.cpu02.op_class::SimdMult                     0      0.00%     79.68% # Class of executed instruction
system.cpu02.op_class::SimdMultAcc                  0      0.00%     79.68% # Class of executed instruction
system.cpu02.op_class::SimdShift                    0      0.00%     79.68% # Class of executed instruction
system.cpu02.op_class::SimdShiftAcc                 0      0.00%     79.68% # Class of executed instruction
system.cpu02.op_class::SimdDiv                      0      0.00%     79.68% # Class of executed instruction
system.cpu02.op_class::SimdSqrt                     0      0.00%     79.68% # Class of executed instruction
system.cpu02.op_class::SimdFloatAdd                 0      0.00%     79.68% # Class of executed instruction
system.cpu02.op_class::SimdFloatAlu                 0      0.00%     79.68% # Class of executed instruction
system.cpu02.op_class::SimdFloatCmp                 0      0.00%     79.68% # Class of executed instruction
system.cpu02.op_class::SimdFloatCvt                 0      0.00%     79.68% # Class of executed instruction
system.cpu02.op_class::SimdFloatDiv                 0      0.00%     79.68% # Class of executed instruction
system.cpu02.op_class::SimdFloatMisc                0      0.00%     79.68% # Class of executed instruction
system.cpu02.op_class::SimdFloatMult                0      0.00%     79.68% # Class of executed instruction
system.cpu02.op_class::SimdFloatMultAcc             0      0.00%     79.68% # Class of executed instruction
system.cpu02.op_class::SimdFloatSqrt                0      0.00%     79.68% # Class of executed instruction
system.cpu02.op_class::SimdReduceAdd                0      0.00%     79.68% # Class of executed instruction
system.cpu02.op_class::SimdReduceAlu                0      0.00%     79.68% # Class of executed instruction
system.cpu02.op_class::SimdReduceCmp                0      0.00%     79.68% # Class of executed instruction
system.cpu02.op_class::SimdFloatReduceAdd            0      0.00%     79.68% # Class of executed instruction
system.cpu02.op_class::SimdFloatReduceCmp            0      0.00%     79.68% # Class of executed instruction
system.cpu02.op_class::SimdAes                      0      0.00%     79.68% # Class of executed instruction
system.cpu02.op_class::SimdAesMix                   0      0.00%     79.68% # Class of executed instruction
system.cpu02.op_class::SimdSha1Hash                 0      0.00%     79.68% # Class of executed instruction
system.cpu02.op_class::SimdSha1Hash2                0      0.00%     79.68% # Class of executed instruction
system.cpu02.op_class::SimdSha256Hash               0      0.00%     79.68% # Class of executed instruction
system.cpu02.op_class::SimdSha256Hash2              0      0.00%     79.68% # Class of executed instruction
system.cpu02.op_class::SimdShaSigma2                0      0.00%     79.68% # Class of executed instruction
system.cpu02.op_class::SimdShaSigma3                0      0.00%     79.68% # Class of executed instruction
system.cpu02.op_class::SimdPredAlu                  0      0.00%     79.68% # Class of executed instruction
system.cpu02.op_class::MemRead                   1056     10.77%     90.45% # Class of executed instruction
system.cpu02.op_class::MemWrite                   936      9.55%    100.00% # Class of executed instruction
system.cpu02.op_class::FloatMemRead                 0      0.00%    100.00% # Class of executed instruction
system.cpu02.op_class::FloatMemWrite                0      0.00%    100.00% # Class of executed instruction
system.cpu02.op_class::IprAccess                    0      0.00%    100.00% # Class of executed instruction
system.cpu02.op_class::InstPrefetch                 0      0.00%    100.00% # Class of executed instruction
system.cpu02.op_class::total                     9801                       # Class of executed instruction
system.cpu02.workload.numSyscalls                  11                       # Number of system calls
system.cpu03.Branches                            1218                       # Number of branches fetched
system.cpu03.committedInsts                      5411                       # Number of instructions committed
system.cpu03.committedOps                        9801                       # Number of ops (including micro ops) committed
system.cpu03.dtb.rdAccesses                      1056                       # TLB accesses on read requests
system.cpu03.dtb.rdMisses                           9                       # TLB misses on read requests
system.cpu03.dtb.wrAccesses                       936                       # TLB accesses on write requests
system.cpu03.dtb.wrMisses                           7                       # TLB misses on write requests
system.cpu03.idle_fraction                   0.999987                       # Percentage of idle cycles
system.cpu03.itb.rdAccesses                         0                       # TLB accesses on read requests
system.cpu03.itb.rdMisses                           0                       # TLB misses on read requests
system.cpu03.itb.wrAccesses                      6902                       # TLB accesses on write requests
system.cpu03.itb.wrMisses                          31                       # TLB misses on write requests
system.cpu03.not_idle_fraction               0.000013                       # Percentage of non-idle cycles
system.cpu03.numCycles                        4636156                       # number of cpu cycles simulated
system.cpu03.numWorkItemsCompleted                  0                       # number of work items this cpu completed
system.cpu03.numWorkItemsStarted                    0                       # number of work items this cpu started
system.cpu03.num_busy_cycles                60.966070                       # Number of busy cycles
system.cpu03.num_cc_register_reads               6541                       # number of times the CC registers were read
system.cpu03.num_cc_register_writes              3560                       # number of times the CC registers were written
system.cpu03.num_conditional_control_insts          908                       # number of instructions that are conditional controls
system.cpu03.num_fp_alu_accesses                    0                       # Number of float alu accesses
system.cpu03.num_fp_insts                           0                       # number of float instructions
system.cpu03.num_fp_register_reads                  0                       # number of times the floating registers were read
system.cpu03.num_fp_register_writes                 0                       # number of times the floating registers were written
system.cpu03.num_func_calls                       211                       # number of times a function call or return occured
system.cpu03.num_idle_cycles             4636095.033930                       # Number of idle cycles
system.cpu03.num_int_alu_accesses                9695                       # Number of integer alu accesses
system.cpu03.num_int_insts                       9695                       # number of integer instructions
system.cpu03.num_int_register_reads             18412                       # number of times the integer registers were read
system.cpu03.num_int_register_writes             7568                       # number of times the integer registers were written
system.cpu03.num_load_insts                      1056                       # Number of load instructions
system.cpu03.num_mem_refs                        1992                       # number of memory refs
system.cpu03.num_store_insts                      936                       # Number of store instructions
system.cpu03.num_vec_alu_accesses                   0                       # Number of vector alu accesses
system.cpu03.num_vec_insts                          0                       # number of vector instructions
system.cpu03.num_vec_register_reads                 0                       # number of times the vector registers were read
system.cpu03.num_vec_register_writes                0                       # number of times the vector registers were written
system.cpu03.op_class::No_OpClass                   1      0.01%      0.01% # Class of executed instruction
system.cpu03.op_class::IntAlu                    7798     79.56%     79.57% # Class of executed instruction
system.cpu03.op_class::IntMult                      3      0.03%     79.60% # Class of executed instruction
system.cpu03.op_class::IntDiv                       7      0.07%     79.68% # Class of executed instruction
system.cpu03.op_class::FloatAdd                     0      0.00%     79.68% # Class of executed instruction
system.cpu03.op_class::FloatCmp                     0      0.00%     79.68% # Class of executed instruction
system.cpu03.op_class::FloatCvt                     0      0.00%     79.68% # Class of executed instruction
system.cpu03.op_class::FloatMult                    0      0.00%     79.68% # Class of executed instruction
system.cpu03.op_class::FloatMultAcc                 0      0.00%     79.68% # Class of executed instruction
system.cpu03.op_class::FloatDiv                     0      0.00%     79.68% # Class of executed instruction
system.cpu03.op_class::FloatMisc                    0      0.00%     79.68% # Class of executed instruction
system.cpu03.op_class::FloatSqrt                    0      0.00%     79.68% # Class of executed instruction
system.cpu03.op_class::SimdAdd                      0      0.00%     79.68% # Class of executed instruction
system.cpu03.op_class::SimdAddAcc                   0      0.00%     79.68% # Class of executed instruction
system.cpu03.op_class::SimdAlu                      0      0.00%     79.68% # Class of executed instruction
system.cpu03.op_class::SimdCmp                      0      0.00%     79.68% # Class of executed instruction
system.cpu03.op_class::SimdCvt                      0      0.00%     79.68% # Class of executed instruction
system.cpu03.op_class::SimdMisc                     0      0.00%     79.68% # Class of executed instruction
system.cpu03.op_class::SimdMult                     0      0.00%     79.68% # Class of executed instruction
system.cpu03.op_class::SimdMultAcc                  0      0.00%     79.68% # Class of executed instruction
system.cpu03.op_class::SimdShift                    0      0.00%     79.68% # Class of executed instruction
system.cpu03.op_class::SimdShiftAcc                 0      0.00%     79.68% # Class of executed instruction
system.cpu03.op_class::SimdDiv                      0      0.00%     79.68% # Class of executed instruction
system.cpu03.op_class::SimdSqrt                     0      0.00%     79.68% # Class of executed instruction
system.cpu03.op_class::SimdFloatAdd                 0      0.00%     79.68% # Class of executed instruction
system.cpu03.op_class::SimdFloatAlu                 0      0.00%     79.68% # Class of executed instruction
system.cpu03.op_class::SimdFloatCmp                 0      0.00%     79.68% # Class of executed instruction
system.cpu03.op_class::SimdFloatCvt                 0      0.00%     79.68% # Class of executed instruction
system.cpu03.op_class::SimdFloatDiv                 0      0.00%     79.68% # Class of executed instruction
system.cpu03.op_class::SimdFloatMisc                0      0.00%     79.68% # Class of executed instruction
system.cpu03.op_class::SimdFloatMult                0      0.00%     79.68% # Class of executed instruction
system.cpu03.op_class::SimdFloatMultAcc             0      0.00%     79.68% # Class of executed instruction
system.cpu03.op_class::SimdFloatSqrt                0      0.00%     79.68% # Class of executed instruction
system.cpu03.op_class::SimdReduceAdd                0      0.00%     79.68% # Class of executed instruction
system.cpu03.op_class::SimdReduceAlu                0      0.00%     79.68% # Class of executed instruction
system.cpu03.op_class::SimdReduceCmp                0      0.00%     79.68% # Class of executed instruction
system.cpu03.op_class::SimdFloatReduceAdd            0      0.00%     79.68% # Class of executed instruction
system.cpu03.op_class::SimdFloatReduceCmp            0      0.00%     79.68% # Class of executed instruction
system.cpu03.op_class::SimdAes                      0      0.00%     79.68% # Class of executed instruction
system.cpu03.op_class::SimdAesMix                   0      0.00%     79.68% # Class of executed instruction
system.cpu03.op_class::SimdSha1Hash                 0      0.00%     79.68% # Class of executed instruction
system.cpu03.op_class::SimdSha1Hash2                0      0.00%     79.68% # Class of executed instruction
system.cpu03.op_class::SimdSha256Hash               0      0.00%     79.68% # Class of executed instruction
system.cpu03.op_class::SimdSha256Hash2              0      0.00%     79.68% # Class of executed instruction
system.cpu03.op_class::SimdShaSigma2                0      0.00%     79.68% # Class of executed instruction
system.cpu03.op_class::SimdShaSigma3                0      0.00%     79.68% # Class of executed instruction
system.cpu03.op_class::SimdPredAlu                  0      0.00%     79.68% # Class of executed instruction
system.cpu03.op_class::MemRead                   1056     10.77%     90.45% # Class of executed instruction
system.cpu03.op_class::MemWrite                   936      9.55%    100.00% # Class of executed instruction
system.cpu03.op_class::FloatMemRead                 0      0.00%    100.00% # Class of executed instruction
system.cpu03.op_class::FloatMemWrite                0      0.00%    100.00% # Class of executed instruction
system.cpu03.op_class::IprAccess                    0      0.00%    100.00% # Class of executed instruction
system.cpu03.op_class::InstPrefetch                 0      0.00%    100.00% # Class of executed instruction
system.cpu03.op_class::total                     9801                       # Class of executed instruction
system.cpu03.workload.numSyscalls                  11                       # Number of system calls
system.cpu04.Branches                            1218                       # Number of branches fetched
system.cpu04.committedInsts                      5411                       # Number of instructions committed
system.cpu04.committedOps                        9801                       # Number of ops (including micro ops) committed
system.cpu04.dtb.rdAccesses                      1056                       # TLB accesses on read requests
system.cpu04.dtb.rdMisses                           9                       # TLB misses on read requests
system.cpu04.dtb.wrAccesses                       936                       # TLB accesses on write requests
system.cpu04.dtb.wrMisses                           7                       # TLB misses on write requests
system.cpu04.idle_fraction                   0.999987                       # Percentage of idle cycles
system.cpu04.itb.rdAccesses                         0                       # TLB accesses on read requests
system.cpu04.itb.rdMisses                           0                       # TLB misses on read requests
system.cpu04.itb.wrAccesses                      6902                       # TLB accesses on write requests
system.cpu04.itb.wrMisses                          31                       # TLB misses on write requests
system.cpu04.not_idle_fraction               0.000013                       # Percentage of non-idle cycles
system.cpu04.numCycles                        4657524                       # number of cpu cycles simulated
system.cpu04.numWorkItemsCompleted                  0                       # number of work items this cpu completed
system.cpu04.numWorkItemsStarted                    0                       # number of work items this cpu started
system.cpu04.num_busy_cycles                61.529350                       # Number of busy cycles
system.cpu04.num_cc_register_reads               6541                       # number of times the CC registers were read
system.cpu04.num_cc_register_writes              3560                       # number of times the CC registers were written
system.cpu04.num_conditional_control_insts          908                       # number of instructions that are conditional controls
system.cpu04.num_fp_alu_accesses                    0                       # Number of float alu accesses
system.cpu04.num_fp_insts                           0                       # number of float instructions
system.cpu04.num_fp_register_reads                  0                       # number of times the floating registers were read
system.cpu04.num_fp_register_writes                 0                       # number of times the floating registers were written
system.cpu04.num_func_calls                       211                       # number of times a function call or return occured
system.cpu04.num_idle_cycles             4657462.470650                       # Number of idle cycles
system.cpu04.num_int_alu_accesses                9695                       # Number of integer alu accesses
system.cpu04.num_int_insts                       9695                       # number of integer instructions
system.cpu04.num_int_register_reads             18412                       # number of times the integer registers were read
system.cpu04.num_int_register_writes             7568                       # number of times the integer registers were written
system.cpu04.num_load_insts                      1056                       # Number of load instructions
system.cpu04.num_mem_refs                        1992                       # number of memory refs
system.cpu04.num_store_insts                      936                       # Number of store instructions
system.cpu04.num_vec_alu_accesses                   0                       # Number of vector alu accesses
system.cpu04.num_vec_insts                          0                       # number of vector instructions
system.cpu04.num_vec_register_reads                 0                       # number of times the vector registers were read
system.cpu04.num_vec_register_writes                0                       # number of times the vector registers were written
system.cpu04.op_class::No_OpClass                   1      0.01%      0.01% # Class of executed instruction
system.cpu04.op_class::IntAlu                    7798     79.56%     79.57% # Class of executed instruction
system.cpu04.op_class::IntMult                      3      0.03%     79.60% # Class of executed instruction
system.cpu04.op_class::IntDiv                       7      0.07%     79.68% # Class of executed instruction
system.cpu04.op_class::FloatAdd                     0      0.00%     79.68% # Class of executed instruction
system.cpu04.op_class::FloatCmp                     0      0.00%     79.68% # Class of executed instruction
system.cpu04.op_class::FloatCvt                     0      0.00%     79.68% # Class of executed instruction
system.cpu04.op_class::FloatMult                    0      0.00%     79.68% # Class of executed instruction
system.cpu04.op_class::FloatMultAcc                 0      0.00%     79.68% # Class of executed instruction
system.cpu04.op_class::FloatDiv                     0      0.00%     79.68% # Class of executed instruction
system.cpu04.op_class::FloatMisc                    0      0.00%     79.68% # Class of executed instruction
system.cpu04.op_class::FloatSqrt                    0      0.00%     79.68% # Class of executed instruction
system.cpu04.op_class::SimdAdd                      0      0.00%     79.68% # Class of executed instruction
system.cpu04.op_class::SimdAddAcc                   0      0.00%     79.68% # Class of executed instruction
system.cpu04.op_class::SimdAlu                      0      0.00%     79.68% # Class of executed instruction
system.cpu04.op_class::SimdCmp                      0      0.00%     79.68% # Class of executed instruction
system.cpu04.op_class::SimdCvt                      0      0.00%     79.68% # Class of executed instruction
system.cpu04.op_class::SimdMisc                     0      0.00%     79.68% # Class of executed instruction
system.cpu04.op_class::SimdMult                     0      0.00%     79.68% # Class of executed instruction
system.cpu04.op_class::SimdMultAcc                  0      0.00%     79.68% # Class of executed instruction
system.cpu04.op_class::SimdShift                    0      0.00%     79.68% # Class of executed instruction
system.cpu04.op_class::SimdShiftAcc                 0      0.00%     79.68% # Class of executed instruction
system.cpu04.op_class::SimdDiv                      0      0.00%     79.68% # Class of executed instruction
system.cpu04.op_class::SimdSqrt                     0      0.00%     79.68% # Class of executed instruction
system.cpu04.op_class::SimdFloatAdd                 0      0.00%     79.68% # Class of executed instruction
system.cpu04.op_class::SimdFloatAlu                 0      0.00%     79.68% # Class of executed instruction
system.cpu04.op_class::SimdFloatCmp                 0      0.00%     79.68% # Class of executed instruction
system.cpu04.op_class::SimdFloatCvt                 0      0.00%     79.68% # Class of executed instruction
system.cpu04.op_class::SimdFloatDiv                 0      0.00%     79.68% # Class of executed instruction
system.cpu04.op_class::SimdFloatMisc                0      0.00%     79.68% # Class of executed instruction
system.cpu04.op_class::SimdFloatMult                0      0.00%     79.68% # Class of executed instruction
system.cpu04.op_class::SimdFloatMultAcc             0      0.00%     79.68% # Class of executed instruction
system.cpu04.op_class::SimdFloatSqrt                0      0.00%     79.68% # Class of executed instruction
system.cpu04.op_class::SimdReduceAdd                0      0.00%     79.68% # Class of executed instruction
system.cpu04.op_class::SimdReduceAlu                0      0.00%     79.68% # Class of executed instruction
system.cpu04.op_class::SimdReduceCmp                0      0.00%     79.68% # Class of executed instruction
system.cpu04.op_class::SimdFloatReduceAdd            0      0.00%     79.68% # Class of executed instruction
system.cpu04.op_class::SimdFloatReduceCmp            0      0.00%     79.68% # Class of executed instruction
system.cpu04.op_class::SimdAes                      0      0.00%     79.68% # Class of executed instruction
system.cpu04.op_class::SimdAesMix                   0      0.00%     79.68% # Class of executed instruction
system.cpu04.op_class::SimdSha1Hash                 0      0.00%     79.68% # Class of executed instruction
system.cpu04.op_class::SimdSha1Hash2                0      0.00%     79.68% # Class of executed instruction
system.cpu04.op_class::SimdSha256Hash               0      0.00%     79.68% # Class of executed instruction
system.cpu04.op_class::SimdSha256Hash2              0      0.00%     79.68% # Class of executed instruction
system.cpu04.op_class::SimdShaSigma2                0      0.00%     79.68% # Class of executed instruction
system.cpu04.op_class::SimdShaSigma3                0      0.00%     79.68% # Class of executed instruction
system.cpu04.op_class::SimdPredAlu                  0      0.00%     79.68% # Class of executed instruction
system.cpu04.op_class::MemRead                   1056     10.77%     90.45% # Class of executed instruction
system.cpu04.op_class::MemWrite                   936      9.55%    100.00% # Class of executed instruction
system.cpu04.op_class::FloatMemRead                 0      0.00%    100.00% # Class of executed instruction
system.cpu04.op_class::FloatMemWrite                0      0.00%    100.00% # Class of executed instruction
system.cpu04.op_class::IprAccess                    0      0.00%    100.00% # Class of executed instruction
system.cpu04.op_class::InstPrefetch                 0      0.00%    100.00% # Class of executed instruction
system.cpu04.op_class::total                     9801                       # Class of executed instruction
system.cpu04.workload.numSyscalls                  11                       # Number of system calls
system.cpu05.Branches                            1218                       # Number of branches fetched
system.cpu05.committedInsts                      5411                       # Number of instructions committed
system.cpu05.committedOps                        9801                       # Number of ops (including micro ops) committed
system.cpu05.dtb.rdAccesses                      1056                       # TLB accesses on read requests
system.cpu05.dtb.rdMisses                           9                       # TLB misses on read requests
system.cpu05.dtb.wrAccesses                       936                       # TLB accesses on write requests
system.cpu05.dtb.wrMisses                           7                       # TLB misses on write requests
system.cpu05.idle_fraction                   0.999987                       # Percentage of idle cycles
system.cpu05.itb.rdAccesses                         0                       # TLB accesses on read requests
system.cpu05.itb.rdMisses                           0                       # TLB misses on read requests
system.cpu05.itb.wrAccesses                      6902                       # TLB accesses on write requests
system.cpu05.itb.wrMisses                          31                       # TLB misses on write requests
system.cpu05.not_idle_fraction               0.000013                       # Percentage of non-idle cycles
system.cpu05.numCycles                        4686868                       # number of cpu cycles simulated
system.cpu05.numWorkItemsCompleted                  0                       # number of work items this cpu completed
system.cpu05.numWorkItemsStarted                    0                       # number of work items this cpu started
system.cpu05.num_busy_cycles                62.307104                       # Number of busy cycles
system.cpu05.num_cc_register_reads               6541                       # number of times the CC registers were read
system.cpu05.num_cc_register_writes              3560                       # number of times the CC registers were written
system.cpu05.num_conditional_control_insts          908                       # number of instructions that are conditional controls
system.cpu05.num_fp_alu_accesses                    0                       # Number of float alu accesses
system.cpu05.num_fp_insts                           0                       # number of float instructions
system.cpu05.num_fp_register_reads                  0                       # number of times the floating registers were read
system.cpu05.num_fp_register_writes                 0                       # number of times the floating registers were written
system.cpu05.num_func_calls                       211                       # number of times a function call or return occured
system.cpu05.num_idle_cycles             4686805.692896                       # Number of idle cycles
system.cpu05.num_int_alu_accesses                9695                       # Number of integer alu accesses
system.cpu05.num_int_insts                       9695                       # number of integer instructions
system.cpu05.num_int_register_reads             18412                       # number of times the integer registers were read
system.cpu05.num_int_register_writes             7568                       # number of times the integer registers were written
system.cpu05.num_load_insts                      1056                       # Number of load instructions
system.cpu05.num_mem_refs                        1992                       # number of memory refs
system.cpu05.num_store_insts                      936                       # Number of store instructions
system.cpu05.num_vec_alu_accesses                   0                       # Number of vector alu accesses
system.cpu05.num_vec_insts                          0                       # number of vector instructions
system.cpu05.num_vec_register_reads                 0                       # number of times the vector registers were read
system.cpu05.num_vec_register_writes                0                       # number of times the vector registers were written
system.cpu05.op_class::No_OpClass                   1      0.01%      0.01% # Class of executed instruction
system.cpu05.op_class::IntAlu                    7798     79.56%     79.57% # Class of executed instruction
system.cpu05.op_class::IntMult                      3      0.03%     79.60% # Class of executed instruction
system.cpu05.op_class::IntDiv                       7      0.07%     79.68% # Class of executed instruction
system.cpu05.op_class::FloatAdd                     0      0.00%     79.68% # Class of executed instruction
system.cpu05.op_class::FloatCmp                     0      0.00%     79.68% # Class of executed instruction
system.cpu05.op_class::FloatCvt                     0      0.00%     79.68% # Class of executed instruction
system.cpu05.op_class::FloatMult                    0      0.00%     79.68% # Class of executed instruction
system.cpu05.op_class::FloatMultAcc                 0      0.00%     79.68% # Class of executed instruction
system.cpu05.op_class::FloatDiv                     0      0.00%     79.68% # Class of executed instruction
system.cpu05.op_class::FloatMisc                    0      0.00%     79.68% # Class of executed instruction
system.cpu05.op_class::FloatSqrt                    0      0.00%     79.68% # Class of executed instruction
system.cpu05.op_class::SimdAdd                      0      0.00%     79.68% # Class of executed instruction
system.cpu05.op_class::SimdAddAcc                   0      0.00%     79.68% # Class of executed instruction
system.cpu05.op_class::SimdAlu                      0      0.00%     79.68% # Class of executed instruction
system.cpu05.op_class::SimdCmp                      0      0.00%     79.68% # Class of executed instruction
system.cpu05.op_class::SimdCvt                      0      0.00%     79.68% # Class of executed instruction
system.cpu05.op_class::SimdMisc                     0      0.00%     79.68% # Class of executed instruction
system.cpu05.op_class::SimdMult                     0      0.00%     79.68% # Class of executed instruction
system.cpu05.op_class::SimdMultAcc                  0      0.00%     79.68% # Class of executed instruction
system.cpu05.op_class::SimdShift                    0      0.00%     79.68% # Class of executed instruction
system.cpu05.op_class::SimdShiftAcc                 0      0.00%     79.68% # Class of executed instruction
system.cpu05.op_class::SimdDiv                      0      0.00%     79.68% # Class of executed instruction
system.cpu05.op_class::SimdSqrt                     0      0.00%     79.68% # Class of executed instruction
system.cpu05.op_class::SimdFloatAdd                 0      0.00%     79.68% # Class of executed instruction
system.cpu05.op_class::SimdFloatAlu                 0      0.00%     79.68% # Class of executed instruction
system.cpu05.op_class::SimdFloatCmp                 0      0.00%     79.68% # Class of executed instruction
system.cpu05.op_class::SimdFloatCvt                 0      0.00%     79.68% # Class of executed instruction
system.cpu05.op_class::SimdFloatDiv                 0      0.00%     79.68% # Class of executed instruction
system.cpu05.op_class::SimdFloatMisc                0      0.00%     79.68% # Class of executed instruction
system.cpu05.op_class::SimdFloatMult                0      0.00%     79.68% # Class of executed instruction
system.cpu05.op_class::SimdFloatMultAcc             0      0.00%     79.68% # Class of executed instruction
system.cpu05.op_class::SimdFloatSqrt                0      0.00%     79.68% # Class of executed instruction
system.cpu05.op_class::SimdReduceAdd                0      0.00%     79.68% # Class of executed instruction
system.cpu05.op_class::SimdReduceAlu                0      0.00%     79.68% # Class of executed instruction
system.cpu05.op_class::SimdReduceCmp                0      0.00%     79.68% # Class of executed instruction
system.cpu05.op_class::SimdFloatReduceAdd            0      0.00%     79.68% # Class of executed instruction
system.cpu05.op_class::SimdFloatReduceCmp            0      0.00%     79.68% # Class of executed instruction
system.cpu05.op_class::SimdAes                      0      0.00%     79.68% # Class of executed instruction
system.cpu05.op_class::SimdAesMix                   0      0.00%     79.68% # Class of executed instruction
system.cpu05.op_class::SimdSha1Hash                 0      0.00%     79.68% # Class of executed instruction
system.cpu05.op_class::SimdSha1Hash2                0      0.00%     79.68% # Class of executed instruction
system.cpu05.op_class::SimdSha256Hash               0      0.00%     79.68% # Class of executed instruction
system.cpu05.op_class::SimdSha256Hash2              0      0.00%     79.68% # Class of executed instruction
system.cpu05.op_class::SimdShaSigma2                0      0.00%     79.68% # Class of executed instruction
system.cpu05.op_class::SimdShaSigma3                0      0.00%     79.68% # Class of executed instruction
system.cpu05.op_class::SimdPredAlu                  0      0.00%     79.68% # Class of executed instruction
system.cpu05.op_class::MemRead                   1056     10.77%     90.45% # Class of executed instruction
system.cpu05.op_class::MemWrite                   936      9.55%    100.00% # Class of executed instruction
system.cpu05.op_class::FloatMemRead                 0      0.00%    100.00% # Class of executed instruction
system.cpu05.op_class::FloatMemWrite                0      0.00%    100.00% # Class of executed instruction
system.cpu05.op_class::IprAccess                    0      0.00%    100.00% # Class of executed instruction
system.cpu05.op_class::InstPrefetch                 0      0.00%    100.00% # Class of executed instruction
system.cpu05.op_class::total                     9801                       # Class of executed instruction
system.cpu05.workload.numSyscalls                  11                       # Number of system calls
system.cpu06.Branches                            1218                       # Number of branches fetched
system.cpu06.committedInsts                      5411                       # Number of instructions committed
system.cpu06.committedOps                        9801                       # Number of ops (including micro ops) committed
system.cpu06.dtb.rdAccesses                      1056                       # TLB accesses on read requests
system.cpu06.dtb.rdMisses                           9                       # TLB misses on read requests
system.cpu06.dtb.wrAccesses                       936                       # TLB accesses on write requests
system.cpu06.dtb.wrMisses                           7                       # TLB misses on write requests
system.cpu06.idle_fraction                   0.999987                       # Percentage of idle cycles
system.cpu06.itb.rdAccesses                         0                       # TLB accesses on read requests
system.cpu06.itb.rdMisses                           0                       # TLB misses on read requests
system.cpu06.itb.wrAccesses                      6902                       # TLB accesses on write requests
system.cpu06.itb.wrMisses                          31                       # TLB misses on write requests
system.cpu06.not_idle_fraction               0.000013                       # Percentage of non-idle cycles
system.cpu06.numCycles                        4689154                       # number of cpu cycles simulated
system.cpu06.numWorkItemsCompleted                  0                       # number of work items this cpu completed
system.cpu06.numWorkItemsStarted                    0                       # number of work items this cpu started
system.cpu06.num_busy_cycles                62.367899                       # Number of busy cycles
system.cpu06.num_cc_register_reads               6541                       # number of times the CC registers were read
system.cpu06.num_cc_register_writes              3560                       # number of times the CC registers were written
system.cpu06.num_conditional_control_insts          908                       # number of instructions that are conditional controls
system.cpu06.num_fp_alu_accesses                    0                       # Number of float alu accesses
system.cpu06.num_fp_insts                           0                       # number of float instructions
system.cpu06.num_fp_register_reads                  0                       # number of times the floating registers were read
system.cpu06.num_fp_register_writes                 0                       # number of times the floating registers were written
system.cpu06.num_func_calls                       211                       # number of times a function call or return occured
system.cpu06.num_idle_cycles             4689091.632101                       # Number of idle cycles
system.cpu06.num_int_alu_accesses                9695                       # Number of integer alu accesses
system.cpu06.num_int_insts                       9695                       # number of integer instructions
system.cpu06.num_int_register_reads             18412                       # number of times the integer registers were read
system.cpu06.num_int_register_writes             7568                       # number of times the integer registers were written
system.cpu06.num_load_insts                      1056                       # Number of load instructions
system.cpu06.num_mem_refs                        1992                       # number of memory refs
system.cpu06.num_store_insts                      936                       # Number of store instructions
system.cpu06.num_vec_alu_accesses                   0                       # Number of vector alu accesses
system.cpu06.num_vec_insts                          0                       # number of vector instructions
system.cpu06.num_vec_register_reads                 0                       # number of times the vector registers were read
system.cpu06.num_vec_register_writes                0                       # number of times the vector registers were written
system.cpu06.op_class::No_OpClass                   1      0.01%      0.01% # Class of executed instruction
system.cpu06.op_class::IntAlu                    7798     79.56%     79.57% # Class of executed instruction
system.cpu06.op_class::IntMult                      3      0.03%     79.60% # Class of executed instruction
system.cpu06.op_class::IntDiv                       7      0.07%     79.68% # Class of executed instruction
system.cpu06.op_class::FloatAdd                     0      0.00%     79.68% # Class of executed instruction
system.cpu06.op_class::FloatCmp                     0      0.00%     79.68% # Class of executed instruction
system.cpu06.op_class::FloatCvt                     0      0.00%     79.68% # Class of executed instruction
system.cpu06.op_class::FloatMult                    0      0.00%     79.68% # Class of executed instruction
system.cpu06.op_class::FloatMultAcc                 0      0.00%     79.68% # Class of executed instruction
system.cpu06.op_class::FloatDiv                     0      0.00%     79.68% # Class of executed instruction
system.cpu06.op_class::FloatMisc                    0      0.00%     79.68% # Class of executed instruction
system.cpu06.op_class::FloatSqrt                    0      0.00%     79.68% # Class of executed instruction
system.cpu06.op_class::SimdAdd                      0      0.00%     79.68% # Class of executed instruction
system.cpu06.op_class::SimdAddAcc                   0      0.00%     79.68% # Class of executed instruction
system.cpu06.op_class::SimdAlu                      0      0.00%     79.68% # Class of executed instruction
system.cpu06.op_class::SimdCmp                      0      0.00%     79.68% # Class of executed instruction
system.cpu06.op_class::SimdCvt                      0      0.00%     79.68% # Class of executed instruction
system.cpu06.op_class::SimdMisc                     0      0.00%     79.68% # Class of executed instruction
system.cpu06.op_class::SimdMult                     0      0.00%     79.68% # Class of executed instruction
system.cpu06.op_class::SimdMultAcc                  0      0.00%     79.68% # Class of executed instruction
system.cpu06.op_class::SimdShift                    0      0.00%     79.68% # Class of executed instruction
system.cpu06.op_class::SimdShiftAcc                 0      0.00%     79.68% # Class of executed instruction
system.cpu06.op_class::SimdDiv                      0      0.00%     79.68% # Class of executed instruction
system.cpu06.op_class::SimdSqrt                     0      0.00%     79.68% # Class of executed instruction
system.cpu06.op_class::SimdFloatAdd                 0      0.00%     79.68% # Class of executed instruction
system.cpu06.op_class::SimdFloatAlu                 0      0.00%     79.68% # Class of executed instruction
system.cpu06.op_class::SimdFloatCmp                 0      0.00%     79.68% # Class of executed instruction
system.cpu06.op_class::SimdFloatCvt                 0      0.00%     79.68% # Class of executed instruction
system.cpu06.op_class::SimdFloatDiv                 0      0.00%     79.68% # Class of executed instruction
system.cpu06.op_class::SimdFloatMisc                0      0.00%     79.68% # Class of executed instruction
system.cpu06.op_class::SimdFloatMult                0      0.00%     79.68% # Class of executed instruction
system.cpu06.op_class::SimdFloatMultAcc             0      0.00%     79.68% # Class of executed instruction
system.cpu06.op_class::SimdFloatSqrt                0      0.00%     79.68% # Class of executed instruction
system.cpu06.op_class::SimdReduceAdd                0      0.00%     79.68% # Class of executed instruction
system.cpu06.op_class::SimdReduceAlu                0      0.00%     79.68% # Class of executed instruction
system.cpu06.op_class::SimdReduceCmp                0      0.00%     79.68% # Class of executed instruction
system.cpu06.op_class::SimdFloatReduceAdd            0      0.00%     79.68% # Class of executed instruction
system.cpu06.op_class::SimdFloatReduceCmp            0      0.00%     79.68% # Class of executed instruction
system.cpu06.op_class::SimdAes                      0      0.00%     79.68% # Class of executed instruction
system.cpu06.op_class::SimdAesMix                   0      0.00%     79.68% # Class of executed instruction
system.cpu06.op_class::SimdSha1Hash                 0      0.00%     79.68% # Class of executed instruction
system.cpu06.op_class::SimdSha1Hash2                0      0.00%     79.68% # Class of executed instruction
system.cpu06.op_class::SimdSha256Hash               0      0.00%     79.68% # Class of executed instruction
system.cpu06.op_class::SimdSha256Hash2              0      0.00%     79.68% # Class of executed instruction
system.cpu06.op_class::SimdShaSigma2                0      0.00%     79.68% # Class of executed instruction
system.cpu06.op_class::SimdShaSigma3                0      0.00%     79.68% # Class of executed instruction
system.cpu06.op_class::SimdPredAlu                  0      0.00%     79.68% # Class of executed instruction
system.cpu06.op_class::MemRead                   1056     10.77%     90.45% # Class of executed instruction
system.cpu06.op_class::MemWrite                   936      9.55%    100.00% # Class of executed instruction
system.cpu06.op_class::FloatMemRead                 0      0.00%    100.00% # Class of executed instruction
system.cpu06.op_class::FloatMemWrite                0      0.00%    100.00% # Class of executed instruction
system.cpu06.op_class::IprAccess                    0      0.00%    100.00% # Class of executed instruction
system.cpu06.op_class::InstPrefetch                 0      0.00%    100.00% # Class of executed instruction
system.cpu06.op_class::total                     9801                       # Class of executed instruction
system.cpu06.workload.numSyscalls                  11                       # Number of system calls
system.cpu07.Branches                            1218                       # Number of branches fetched
system.cpu07.committedInsts                      5411                       # Number of instructions committed
system.cpu07.committedOps                        9801                       # Number of ops (including micro ops) committed
system.cpu07.dtb.rdAccesses                      1056                       # TLB accesses on read requests
system.cpu07.dtb.rdMisses                           9                       # TLB misses on read requests
system.cpu07.dtb.wrAccesses                       936                       # TLB accesses on write requests
system.cpu07.dtb.wrMisses                           7                       # TLB misses on write requests
system.cpu07.idle_fraction                   0.999987                       # Percentage of idle cycles
system.cpu07.itb.rdAccesses                         0                       # TLB accesses on read requests
system.cpu07.itb.rdMisses                           0                       # TLB misses on read requests
system.cpu07.itb.wrAccesses                      6902                       # TLB accesses on write requests
system.cpu07.itb.wrMisses                          31                       # TLB misses on write requests
system.cpu07.not_idle_fraction               0.000013                       # Percentage of non-idle cycles
system.cpu07.numCycles                        4698524                       # number of cpu cycles simulated
system.cpu07.numWorkItemsCompleted                  0                       # number of work items this cpu completed
system.cpu07.numWorkItemsStarted                    0                       # number of work items this cpu started
system.cpu07.num_busy_cycles                62.617398                       # Number of busy cycles
system.cpu07.num_cc_register_reads               6541                       # number of times the CC registers were read
system.cpu07.num_cc_register_writes              3560                       # number of times the CC registers were written
system.cpu07.num_conditional_control_insts          908                       # number of instructions that are conditional controls
system.cpu07.num_fp_alu_accesses                    0                       # Number of float alu accesses
system.cpu07.num_fp_insts                           0                       # number of float instructions
system.cpu07.num_fp_register_reads                  0                       # number of times the floating registers were read
system.cpu07.num_fp_register_writes                 0                       # number of times the floating registers were written
system.cpu07.num_func_calls                       211                       # number of times a function call or return occured
system.cpu07.num_idle_cycles             4698461.382602                       # Number of idle cycles
system.cpu07.num_int_alu_accesses                9695                       # Number of integer alu accesses
system.cpu07.num_int_insts                       9695                       # number of integer instructions
system.cpu07.num_int_register_reads             18412                       # number of times the integer registers were read
system.cpu07.num_int_register_writes             7568                       # number of times the integer registers were written
system.cpu07.num_load_insts                      1056                       # Number of load instructions
system.cpu07.num_mem_refs                        1992                       # number of memory refs
system.cpu07.num_store_insts                      936                       # Number of store instructions
system.cpu07.num_vec_alu_accesses                   0                       # Number of vector alu accesses
system.cpu07.num_vec_insts                          0                       # number of vector instructions
system.cpu07.num_vec_register_reads                 0                       # number of times the vector registers were read
system.cpu07.num_vec_register_writes                0                       # number of times the vector registers were written
system.cpu07.op_class::No_OpClass                   1      0.01%      0.01% # Class of executed instruction
system.cpu07.op_class::IntAlu                    7798     79.56%     79.57% # Class of executed instruction
system.cpu07.op_class::IntMult                      3      0.03%     79.60% # Class of executed instruction
system.cpu07.op_class::IntDiv                       7      0.07%     79.68% # Class of executed instruction
system.cpu07.op_class::FloatAdd                     0      0.00%     79.68% # Class of executed instruction
system.cpu07.op_class::FloatCmp                     0      0.00%     79.68% # Class of executed instruction
system.cpu07.op_class::FloatCvt                     0      0.00%     79.68% # Class of executed instruction
system.cpu07.op_class::FloatMult                    0      0.00%     79.68% # Class of executed instruction
system.cpu07.op_class::FloatMultAcc                 0      0.00%     79.68% # Class of executed instruction
system.cpu07.op_class::FloatDiv                     0      0.00%     79.68% # Class of executed instruction
system.cpu07.op_class::FloatMisc                    0      0.00%     79.68% # Class of executed instruction
system.cpu07.op_class::FloatSqrt                    0      0.00%     79.68% # Class of executed instruction
system.cpu07.op_class::SimdAdd                      0      0.00%     79.68% # Class of executed instruction
system.cpu07.op_class::SimdAddAcc                   0      0.00%     79.68% # Class of executed instruction
system.cpu07.op_class::SimdAlu                      0      0.00%     79.68% # Class of executed instruction
system.cpu07.op_class::SimdCmp                      0      0.00%     79.68% # Class of executed instruction
system.cpu07.op_class::SimdCvt                      0      0.00%     79.68% # Class of executed instruction
system.cpu07.op_class::SimdMisc                     0      0.00%     79.68% # Class of executed instruction
system.cpu07.op_class::SimdMult                     0      0.00%     79.68% # Class of executed instruction
system.cpu07.op_class::SimdMultAcc                  0      0.00%     79.68% # Class of executed instruction
system.cpu07.op_class::SimdShift                    0      0.00%     79.68% # Class of executed instruction
system.cpu07.op_class::SimdShiftAcc                 0      0.00%     79.68% # Class of executed instruction
system.cpu07.op_class::SimdDiv                      0      0.00%     79.68% # Class of executed instruction
system.cpu07.op_class::SimdSqrt                     0      0.00%     79.68% # Class of executed instruction
system.cpu07.op_class::SimdFloatAdd                 0      0.00%     79.68% # Class of executed instruction
system.cpu07.op_class::SimdFloatAlu                 0      0.00%     79.68% # Class of executed instruction
system.cpu07.op_class::SimdFloatCmp                 0      0.00%     79.68% # Class of executed instruction
system.cpu07.op_class::SimdFloatCvt                 0      0.00%     79.68% # Class of executed instruction
system.cpu07.op_class::SimdFloatDiv                 0      0.00%     79.68% # Class of executed instruction
system.cpu07.op_class::SimdFloatMisc                0      0.00%     79.68% # Class of executed instruction
system.cpu07.op_class::SimdFloatMult                0      0.00%     79.68% # Class of executed instruction
system.cpu07.op_class::SimdFloatMultAcc             0      0.00%     79.68% # Class of executed instruction
system.cpu07.op_class::SimdFloatSqrt                0      0.00%     79.68% # Class of executed instruction
[...]
system.hmc_dev.mem_ctrls1.wrQLenPdf::13             0                       # What write queue length does an incoming req see
system.hmc_dev.mem_ctrls1.wrQLenPdf::14             0                       # What write queue length does an incoming req see
system.hmc_dev.mem_ctrls1.wrQLenPdf::15             0                       # What write queue length does an incoming req see
system.hmc_dev.mem_ctrls1.wrQLenPdf::16             0                       # What write queue length does an incoming req see
system.hmc_dev.mem_ctrls1.wrQLenPdf::17             0                       # What write queue length does an incoming req see
system.hmc_dev.mem_ctrls1.wrQLenPdf::18             0                       # What write queue length does an incoming req see
system.hmc_dev.mem_ctrls1.wrQLenPdf::19             0                       # What write queue length does an incoming req see
system.hmc_dev.mem_ctrls1.wrQLenPdf::20             0                       # What write queue length does an incoming req see
system.hmc_dev.mem_ctrls1.wrQLenPdf::21             0                       # What write queue length does an incoming req see
system.hmc_dev.mem_ctrls1.wrQLenPdf::22             0                       # What write queue length does an incoming req see
system.hmc_dev.mem_ctrls1.wrQLenPdf::23             0                       # What write queue length does an incoming req see
system.hmc_dev.mem_ctrls1.wrQLenPdf::24             0                       # What write queue length does an incoming req see
system.hmc_dev.mem_ctrls1.wrQLenPdf::25             0                       # What write queue length does an incoming req see
system.hmc_dev.mem_ctrls1.wrQLenPdf::26             0                       # What write queue length does an incoming req see
system.hmc_dev.mem_ctrls1.wrQLenPdf::27             0                       # What write queue length does an incoming req see
system.hmc_dev.mem_ctrls1.wrQLenPdf::28             0                       # What write queue length does an incoming req see
system.hmc_dev.mem_ctrls1.wrQLenPdf::29             0                       # What write queue length does an incoming req see
system.hmc_dev.mem_ctrls1.wrQLenPdf::30             0                       # What write queue length does an incoming req see
system.hmc_dev.mem_ctrls1.wrQLenPdf::31             0                       # What write queue length does an incoming req see
system.hmc_dev.mem_ctrls1.bytesReadDRAM             0                       # Total number of bytes read from DRAM
system.hmc_dev.mem_ctrls1.bytesReadWrQ              0                       # Total number of bytes read from write queue
system.hmc_dev.mem_ctrls1.bytesWritten              0                       # Total number of bytes written to DRAM
system.hmc_dev.mem_ctrls1.bytesReadSys              0                       # Total read bytes from the system interface side
system.hmc_dev.mem_ctrls1.bytesWrittenSys            0                       # Total written bytes from the system interface side
system.hmc_dev.mem_ctrls1.avgRdBW                0.00                       # Average DRAM read bandwidth in MiByte/s
system.hmc_dev.mem_ctrls1.avgWrBW                0.00                       # Average achieved write bandwidth in MiByte/s
system.hmc_dev.mem_ctrls1.avgRdBWSys             0.00                       # Average system read bandwidth in MiByte/s
system.hmc_dev.mem_ctrls1.avgWrBWSys             0.00                       # Average system write bandwidth in MiByte/s
system.hmc_dev.mem_ctrls1.peakBW             10000.00                       # Theoretical peak bandwidth in MiByte/s
system.hmc_dev.mem_ctrls1.busUtil                0.00                       # Data bus utilization in percentage
system.hmc_dev.mem_ctrls1.busUtilRead            0.00                       # Data bus utilization in percentage for reads
system.hmc_dev.mem_ctrls1.busUtilWrite           0.00                       # Data bus utilization in percentage for writes
system.hmc_dev.mem_ctrls1.totGap                    0                       # Total gap between requests
system.hmc_dev.mem_ctrls1.avgGap                  nan                       # Average gap between requests
system.hmc_dev.mem_ctrls1.pageHitRate             nan                       # Row buffer hit rate, read and write combined
system.hmc_dev.mem_ctrls1.rank0.actEnergy            0                       # Energy for activate commands per rank (pJ)
system.hmc_dev.mem_ctrls1.rank0.preEnergy            0                       # Energy for precharge commands per rank (pJ)
system.hmc_dev.mem_ctrls1.rank0.readEnergy            0                       # Energy for read commands per rank (pJ)
system.hmc_dev.mem_ctrls1.rank0.writeEnergy            0                       # Energy for write commands per rank (pJ)
system.hmc_dev.mem_ctrls1.rank0.refreshEnergy 792265533020.031616                       # Energy for refresh commands per rank (pJ)
system.hmc_dev.mem_ctrls1.rank0.actBackEnergy 132171064366.260147                       # Energy for active background per rank (pJ)
system.hmc_dev.mem_ctrls1.rank0.preBackEnergy 8350037554709.645508                       # Energy for precharge background per rank (pJ)
system.hmc_dev.mem_ctrls1.rank0.actPowerDownEnergy            0                       # Energy for active power-down per rank (pJ)
system.hmc_dev.mem_ctrls1.rank0.prePowerDownEnergy            0                       # Energy for precharge power-down per rank (pJ)
system.hmc_dev.mem_ctrls1.rank0.selfRefreshEnergy            0                       # Energy for self refresh per rank (pJ)
system.hmc_dev.mem_ctrls1.rank0.totalEnergy 9274474154293.605469                       # Total energy per rank (pJ)
system.hmc_dev.mem_ctrls1.rank0.averagePower    52.612800                       # Core power per rank (mW)
system.hmc_dev.mem_ctrls1.rank0.totalIdleTime            0                       # Total Idle time Per DRAM Rank
system.hmc_dev.mem_ctrls1.rank0.memoryStateTime::IDLE 173605862427000                       # Time in different power states
system.hmc_dev.mem_ctrls1.rank0.memoryStateTime::REF 2672043861000                       # Time in different power states
system.hmc_dev.mem_ctrls1.rank0.memoryStateTime::SREF            0                       # Time in different power states
system.hmc_dev.mem_ctrls1.rank0.memoryStateTime::PRE_PDN            0                       # Time in different power states
system.hmc_dev.mem_ctrls1.rank0.memoryStateTime::ACT            0                       # Time in different power states
system.hmc_dev.mem_ctrls1.rank0.memoryStateTime::ACT_PDN            0                       # Time in different power states
system.hmc_dev.buffers79.pwrStateResidencyTicks::UNDEFINED 176277906288000                       # Cumulative time (in ticks) in various power states
system.hmc_dev.buffers78.pwrStateResidencyTicks::UNDEFINED 176277906288000                       # Cumulative time (in ticks) in various power states
system.hmc_dev.buffers75.pwrStateResidencyTicks::UNDEFINED 176277906288000                       # Cumulative time (in ticks) in various power states
system.hmc_dev.buffers74.pwrStateResidencyTicks::UNDEFINED 176277906288000                       # Cumulative time (in ticks) in various power states
system.hmc_dev.buffers77.pwrStateResidencyTicks::UNDEFINED 176277906288000                       # Cumulative time (in ticks) in various power states
system.hmc_dev.buffers218.pwrStateResidencyTicks::UNDEFINED 176277906288000                       # Cumulative time (in ticks) in various power states
system.hmc_dev.buffers71.pwrStateResidencyTicks::UNDEFINED 176277906288000                       # Cumulative time (in ticks) in various power states
system.hmc_dev.buffers70.pwrStateResidencyTicks::UNDEFINED 176277906288000                       # Cumulative time (in ticks) in various power states
system.hmc_dev.buffers73.pwrStateResidencyTicks::UNDEFINED 176277906288000                       # Cumulative time (in ticks) in various power states
system.hmc_dev.buffers72.pwrStateResidencyTicks::UNDEFINED 176277906288000                       # Cumulative time (in ticks) in various power states
system.hmc_dev.buffers99.pwrStateResidencyTicks::UNDEFINED 176277906288000                       # Cumulative time (in ticks) in various power states
system.hmc_dev.buffers82.pwrStateResidencyTicks::UNDEFINED 176277906288000                       # Cumulative time (in ticks) in various power states
system.hmc_dev.buffers221.pwrStateResidencyTicks::UNDEFINED 176277906288000                       # Cumulative time (in ticks) in various power states
system.hmc_dev.buffers220.pwrStateResidencyTicks::UNDEFINED 176277906288000                       # Cumulative time (in ticks) in various power states
system.hmc_dev.xbar7.pwrStateResidencyTicks::UNDEFINED 176277906288000                       # Cumulative time (in ticks) in various power states
system.hmc_dev.xbar7.trans_dist::ReadReq         7958                       # Transaction distribution
system.hmc_dev.xbar7.trans_dist::ReadResp         7958                       # Transaction distribution
system.hmc_dev.xbar7.trans_dist::WriteReq          936                       # Transaction distribution
system.hmc_dev.xbar7.trans_dist::WriteResp          936                       # Transaction distribution
system.hmc_dev.xbar7.pkt_count_system.cpu07.icache_port::system.hmc_dev.buffers105.slave        13804                       # Packet count per connected master and slave (bytes)
system.hmc_dev.xbar7.pkt_count_system.cpu07.icache_port::total        13804                       # Packet count per connected master and slave (bytes)
system.hmc_dev.xbar7.pkt_count_system.cpu07.dcache_port::system.hmc_dev.buffers105.slave         3984                       # Packet count per connected master and slave (bytes)
system.hmc_dev.xbar7.pkt_count_system.cpu07.dcache_port::total         3984                       # Packet count per connected master and slave (bytes)
system.hmc_dev.xbar7.pkt_count::total           17788                       # Packet count per connected master and slave (bytes)
system.hmc_dev.xbar7.pkt_size_system.cpu07.icache_port::system.hmc_dev.buffers105.slave        55216                       # Cumulative packet size per connected master and slave (bytes)
system.hmc_dev.xbar7.pkt_size_system.cpu07.icache_port::total        55216                       # Cumulative packet size per connected master and slave (bytes)
system.hmc_dev.xbar7.pkt_size_system.cpu07.dcache_port::system.hmc_dev.buffers105.slave        14196                       # Cumulative packet size per connected master and slave (bytes)
system.hmc_dev.xbar7.pkt_size_system.cpu07.dcache_port::total        14196                       # Cumulative packet size per connected master and slave (bytes)
system.hmc_dev.xbar7.pkt_size::total            69412                       # Cumulative packet size per connected master and slave (bytes)
system.hmc_dev.xbar7.respLayer15.occupancy     13804000                       # Layer occupancy (ticks)
system.hmc_dev.xbar7.respLayer15.utilization          0.0                       # Layer utilization (%)
system.hmc_dev.xbar7.reqLayer0.occupancy      9830000                       # Layer occupancy (ticks)
system.hmc_dev.xbar7.reqLayer0.utilization          0.0                       # Layer utilization (%)
system.hmc_dev.xbar7.clk_domain.clock            1000                       # Clock period in ticks
system.hmc_dev.xbar7.clk_domain.voltage_domain.voltage            1                       # Voltage in Volts
system.hmc_dev.xbar7.respLayer16.occupancy      3048000                       # Layer occupancy (ticks)
system.hmc_dev.xbar7.respLayer16.utilization          0.0                       # Layer utilization (%)
system.hmc_dev.buffers171.pwrStateResidencyTicks::UNDEFINED 176277906288000                       # Cumulative time (in ticks) in various power states
system.hmc_dev.buffers170.pwrStateResidencyTicks::UNDEFINED 176277906288000                       # Cumulative time (in ticks) in various power states
system.hmc_dev.buffers173.pwrStateResidencyTicks::UNDEFINED 176277906288000                       # Cumulative time (in ticks) in various power states
system.hmc_dev.buffers172.pwrStateResidencyTicks::UNDEFINED 176277906288000                       # Cumulative time (in ticks) in various power states
system.hmc_dev.buffers175.pwrStateResidencyTicks::UNDEFINED 176277906288000                       # Cumulative time (in ticks) in various power states
system.hmc_dev.buffers174.pwrStateResidencyTicks::UNDEFINED 176277906288000                       # Cumulative time (in ticks) in various power states
system.hmc_dev.buffers177.pwrStateResidencyTicks::UNDEFINED 176277906288000                       # Cumulative time (in ticks) in various power states
system.hmc_dev.buffers176.pwrStateResidencyTicks::UNDEFINED 176277906288000                       # Cumulative time (in ticks) in various power states
system.hmc_dev.buffers179.pwrStateResidencyTicks::UNDEFINED 176277906288000                       # Cumulative time (in ticks) in various power states
system.hmc_dev.buffers178.pwrStateResidencyTicks::UNDEFINED 176277906288000                       # Cumulative time (in ticks) in various power states
system.hmc_dev.buffers68.pwrStateResidencyTicks::UNDEFINED 176277906288000                       # Cumulative time (in ticks) in various power states
system.hmc_dev.buffers69.pwrStateResidencyTicks::UNDEFINED 176277906288000                       # Cumulative time (in ticks) in various power states
system.hmc_dev.buffers66.pwrStateResidencyTicks::UNDEFINED 176277906288000                       # Cumulative time (in ticks) in various power states
system.hmc_dev.buffers67.pwrStateResidencyTicks::UNDEFINED 176277906288000                       # Cumulative time (in ticks) in various power states
system.hmc_dev.buffers64.pwrStateResidencyTicks::UNDEFINED 176277906288000                       # Cumulative time (in ticks) in various power states
system.hmc_dev.buffers65.pwrStateResidencyTicks::UNDEFINED 176277906288000                       # Cumulative time (in ticks) in various power states
system.hmc_dev.buffers62.pwrStateResidencyTicks::UNDEFINED 176277906288000                       # Cumulative time (in ticks) in various power states
system.hmc_dev.buffers63.pwrStateResidencyTicks::UNDEFINED 176277906288000                       # Cumulative time (in ticks) in various power states
system.hmc_dev.buffers60.pwrStateResidencyTicks::UNDEFINED 176277906288000                       # Cumulative time (in ticks) in various power states
system.hmc_dev.buffers61.pwrStateResidencyTicks::UNDEFINED 176277906288000                       # Cumulative time (in ticks) in various power states
system.hmc_dev.buffers229.pwrStateResidencyTicks::UNDEFINED 176277906288000                       # Cumulative time (in ticks) in various power states
system.hmc_dev.buffers228.pwrStateResidencyTicks::UNDEFINED 176277906288000                       # Cumulative time (in ticks) in various power states
system.hmc_dev.xbar9.pwrStateResidencyTicks::UNDEFINED 176277906288000                       # Cumulative time (in ticks) in various power states
system.hmc_dev.xbar9.trans_dist::ReadReq         7958                       # Transaction distribution
system.hmc_dev.xbar9.trans_dist::ReadResp         7958                       # Transaction distribution
system.hmc_dev.xbar9.trans_dist::WriteReq          936                       # Transaction distribution
system.hmc_dev.xbar9.trans_dist::WriteResp          936                       # Transaction distribution
system.hmc_dev.xbar9.pkt_count_system.cpu09.icache_port::system.hmc_dev.buffers135.slave        13804                       # Packet count per connected master and slave (bytes)
system.hmc_dev.xbar9.pkt_count_system.cpu09.icache_port::total        13804                       # Packet count per connected master and slave (bytes)
system.hmc_dev.xbar9.pkt_count_system.cpu09.dcache_port::system.hmc_dev.buffers135.slave         3984                       # Packet count per connected master and slave (bytes)
system.hmc_dev.xbar9.pkt_count_system.cpu09.dcache_port::total         3984                       # Packet count per connected master and slave (bytes)
system.hmc_dev.xbar9.pkt_count::total           17788                       # Packet count per connected master and slave (bytes)
system.hmc_dev.xbar9.pkt_size_system.cpu09.icache_port::system.hmc_dev.buffers135.slave        55216                       # Cumulative packet size per connected master and slave (bytes)
system.hmc_dev.xbar9.pkt_size_system.cpu09.icache_port::total        55216                       # Cumulative packet size per connected master and slave (bytes)
system.hmc_dev.xbar9.pkt_size_system.cpu09.dcache_port::system.hmc_dev.buffers135.slave        14196                       # Cumulative packet size per connected master and slave (bytes)
system.hmc_dev.xbar9.pkt_size_system.cpu09.dcache_port::total        14196                       # Cumulative packet size per connected master and slave (bytes)
system.hmc_dev.xbar9.pkt_size::total            69412                       # Cumulative packet size per connected master and slave (bytes)
system.hmc_dev.xbar9.respLayer15.occupancy     13804000                       # Layer occupancy (ticks)
system.hmc_dev.xbar9.respLayer15.utilization          0.0                       # Layer utilization (%)
system.hmc_dev.xbar9.reqLayer0.occupancy      9830000                       # Layer occupancy (ticks)
system.hmc_dev.xbar9.reqLayer0.utilization          0.0                       # Layer utilization (%)
system.hmc_dev.xbar9.clk_domain.clock            1000                       # Clock period in ticks
system.hmc_dev.xbar9.clk_domain.voltage_domain.voltage            1                       # Voltage in Volts
system.hmc_dev.xbar9.respLayer16.occupancy      3048000                       # Layer occupancy (ticks)
system.hmc_dev.xbar9.respLayer16.utilization          0.0                       # Layer utilization (%)
system.hmc_dev.buffers144.pwrStateResidencyTicks::UNDEFINED 176277906288000                       # Cumulative time (in ticks) in various power states
system.hmc_dev.buffers145.pwrStateResidencyTicks::UNDEFINED 176277906288000                       # Cumulative time (in ticks) in various power states
system.hmc_dev.buffers146.pwrStateResidencyTicks::UNDEFINED 176277906288000                       # Cumulative time (in ticks) in various power states
system.hmc_dev.buffers147.pwrStateResidencyTicks::UNDEFINED 176277906288000                       # Cumulative time (in ticks) in various power states
system.hmc_dev.buffers140.pwrStateResidencyTicks::UNDEFINED 176277906288000                       # Cumulative time (in ticks) in various power states
system.hmc_dev.buffers141.pwrStateResidencyTicks::UNDEFINED 176277906288000                       # Cumulative time (in ticks) in various power states
system.hmc_dev.buffers142.pwrStateResidencyTicks::UNDEFINED 176277906288000                       # Cumulative time (in ticks) in various power states
system.hmc_dev.buffers143.pwrStateResidencyTicks::UNDEFINED 176277906288000                       # Cumulative time (in ticks) in various power states
system.hmc_dev.buffers148.pwrStateResidencyTicks::UNDEFINED 176277906288000                       # Cumulative time (in ticks) in various power states
system.hmc_dev.buffers149.pwrStateResidencyTicks::UNDEFINED 176277906288000                       # Cumulative time (in ticks) in various power states
system.cpu_clk_domain.clock                       500                       # Clock period in ticks
system.cpu_voltage_domain.voltage                   1                       # Voltage in Volts

---------- End Simulation Statistics   ----------
