
---------- Begin Simulation Statistics ----------
final_tick                               1050122279616                       # Number of ticks from beginning of simulation (restored from checkpoints and never reset)
host_inst_rate                                1168895                       # Simulator instruction rate (inst/s)
host_mem_usage                                2463224                       # Number of bytes of host memory used
host_op_rate                                  2338043                       # Simulator op (including micro ops) rate (op/s)
host_seconds                                   928.03                       # Real time elapsed on the host
host_tick_rate                             1131564576                       # Simulator tick rate (ticks/s)
sim_freq                                 1000000000000                       # Frequency of simulated ticks
sim_insts                                  1084765301                       # Number of instructions simulated
sim_ops                                    2169766596                       # Number of ops (including micro ops) simulated
sim_seconds                                  1.050122                       # Number of seconds simulated
sim_ticks                                1050122279616                       # Number of ticks simulated
system.cpu.Branches                         238348861                       # Number of branches fetched
system.cpu.committedInsts                  1084765301                       # Number of instructions committed
system.cpu.committedOps                    2169766596                       # Number of ops (including micro ops) committed
system.cpu.dtb.rdAccesses                   341799526                       # TLB accesses on read requests
system.cpu.dtb.rdMisses                        163543                       # TLB misses on read requests
system.cpu.dtb.wrAccesses                   191261337                       # TLB accesses on write requests
system.cpu.dtb.wrMisses                         24700                       # TLB misses on write requests
system.cpu.idle_fraction                     0.000000                       # Percentage of idle cycles
system.cpu.itb.rdAccesses                           0                       # TLB accesses on read requests
system.cpu.itb.rdMisses                             0                       # TLB misses on read requests
system.cpu.itb.wrAccesses                  1440382424                       # TLB accesses on write requests
system.cpu.itb.wrMisses                           467                       # TLB misses on write requests
system.cpu.not_idle_fraction                 1.000000                       # Percentage of non-idle cycles
system.cpu.numCycles                       2525383719                       # number of cpu cycles simulated
system.cpu.numWorkItemsCompleted                    0                       # number of work items this cpu completed
system.cpu.numWorkItemsStarted                      0                       # number of work items this cpu started
system.cpu.num_busy_cycles               2525383718.997595                       # Number of busy cycles
system.cpu.num_cc_register_reads           1028015619                       # number of times the CC registers were read
system.cpu.num_cc_register_writes           583527049                       # number of times the CC registers were written
system.cpu.num_conditional_control_insts    148073210                       # number of instructions that are conditional controls
system.cpu.num_fp_alu_accesses               72097733                       # Number of float alu accesses
system.cpu.num_fp_insts                      72097733                       # number of float instructions
system.cpu.num_fp_register_reads            116064622                       # number of times the floating registers were read
system.cpu.num_fp_register_writes            65814663                       # number of times the floating registers were written
system.cpu.num_func_calls                    55841876                       # number of times a function call or return occured
system.cpu.num_idle_cycles                   0.002405                       # Number of idle cycles
system.cpu.num_int_alu_accesses            2096611604                       # Number of integer alu accesses
system.cpu.num_int_insts                   2096611604                       # number of integer instructions
system.cpu.num_int_register_reads          4302114728                       # number of times the integer registers were read
system.cpu.num_int_register_writes         1706904473                       # number of times the integer registers were written
system.cpu.num_load_insts                   341380694                       # Number of load instructions
system.cpu.num_mem_refs                     532440729                       # number of memory refs
system.cpu.num_store_insts                  191060035                       # Number of store instructions
system.cpu.num_vec_alu_accesses                     0                       # Number of vector alu accesses
system.cpu.num_vec_insts                            0                       # number of vector instructions
system.cpu.num_vec_register_reads                   0                       # number of times the vector registers were read
system.cpu.num_vec_register_writes                  0                       # number of times the vector registers were written
system.cpu.op_class::No_OpClass              12484100      0.58%      0.58% # Class of executed instruction
system.cpu.op_class::IntAlu                1549071201     71.39%     71.97% # Class of executed instruction
system.cpu.op_class::IntMult                  2382282      0.11%     72.08% # Class of executed instruction
system.cpu.op_class::IntDiv                  21785928      1.00%     73.08% # Class of executed instruction
system.cpu.op_class::FloatAdd                 8017721      0.37%     73.45% # Class of executed instruction
system.cpu.op_class::FloatCmp                       0      0.00%     73.45% # Class of executed instruction
system.cpu.op_class::FloatCvt                    2992      0.00%     73.45% # Class of executed instruction
system.cpu.op_class::FloatMult                      0      0.00%     73.45% # Class of executed instruction
system.cpu.op_class::FloatMultAcc                   0      0.00%     73.45% # Class of executed instruction
system.cpu.op_class::FloatDiv                       0      0.00%     73.45% # Class of executed instruction
system.cpu.op_class::FloatMisc                      0      0.00%     73.45% # Class of executed instruction
system.cpu.op_class::FloatSqrt                      0      0.00%     73.45% # Class of executed instruction
system.cpu.op_class::SimdAdd                  2156350      0.10%     73.55% # Class of executed instruction
system.cpu.op_class::SimdAddAcc                     0      0.00%     73.55% # Class of executed instruction
system.cpu.op_class::SimdAlu                  6848867      0.32%     73.87% # Class of executed instruction
system.cpu.op_class::SimdCmp                       12      0.00%     73.87% # Class of executed instruction
system.cpu.op_class::SimdCvt                  4285970      0.20%     74.06% # Class of executed instruction
system.cpu.op_class::SimdMisc                 9920219      0.46%     74.52% # Class of executed instruction
system.cpu.op_class::SimdMult                       0      0.00%     74.52% # Class of executed instruction
system.cpu.op_class::SimdMultAcc                    0      0.00%     74.52% # Class of executed instruction
system.cpu.op_class::SimdShift                2486643      0.11%     74.64% # Class of executed instruction
system.cpu.op_class::SimdShiftAcc                   0      0.00%     74.64% # Class of executed instruction
system.cpu.op_class::SimdDiv                        0      0.00%     74.64% # Class of executed instruction
system.cpu.op_class::SimdSqrt                       0      0.00%     74.64% # Class of executed instruction
system.cpu.op_class::SimdFloatAdd             8534746      0.39%     75.03% # Class of executed instruction
system.cpu.op_class::SimdFloatAlu                   0      0.00%     75.03% # Class of executed instruction
system.cpu.op_class::SimdFloatCmp                   0      0.00%     75.03% # Class of executed instruction
system.cpu.op_class::SimdFloatCvt             5609315      0.26%     75.29% # Class of executed instruction
system.cpu.op_class::SimdFloatDiv             1869771      0.09%     75.37% # Class of executed instruction
system.cpu.op_class::SimdFloatMisc                  0      0.00%     75.37% # Class of executed instruction
system.cpu.op_class::SimdFloatMult            1869750      0.09%     75.46% # Class of executed instruction
system.cpu.op_class::SimdFloatMultAcc               0      0.00%     75.46% # Class of executed instruction
system.cpu.op_class::SimdFloatSqrt                  0      0.00%     75.46% # Class of executed instruction
system.cpu.op_class::SimdReduceAdd                  0      0.00%     75.46% # Class of executed instruction
system.cpu.op_class::SimdReduceAlu                  0      0.00%     75.46% # Class of executed instruction
system.cpu.op_class::SimdReduceCmp                  0      0.00%     75.46% # Class of executed instruction
system.cpu.op_class::SimdFloatReduceAdd             0      0.00%     75.46% # Class of executed instruction
system.cpu.op_class::SimdFloatReduceCmp             0      0.00%     75.46% # Class of executed instruction
system.cpu.op_class::SimdAes                        0      0.00%     75.46% # Class of executed instruction
system.cpu.op_class::SimdAesMix                     0      0.00%     75.46% # Class of executed instruction
system.cpu.op_class::SimdSha1Hash                   0      0.00%     75.46% # Class of executed instruction
system.cpu.op_class::SimdSha1Hash2                  0      0.00%     75.46% # Class of executed instruction
system.cpu.op_class::SimdSha256Hash                 0      0.00%     75.46% # Class of executed instruction
system.cpu.op_class::SimdSha256Hash2                0      0.00%     75.46% # Class of executed instruction
system.cpu.op_class::SimdShaSigma2                  0      0.00%     75.46% # Class of executed instruction
system.cpu.op_class::SimdShaSigma3                  0      0.00%     75.46% # Class of executed instruction
system.cpu.op_class::SimdPredAlu                    0      0.00%     75.46% # Class of executed instruction
system.cpu.op_class::MemRead                330154936     15.22%     90.68% # Class of executed instruction
system.cpu.op_class::MemWrite               186951711      8.62%     99.29% # Class of executed instruction
system.cpu.op_class::FloatMemRead            11225758      0.52%     99.81% # Class of executed instruction
system.cpu.op_class::FloatMemWrite            4108324      0.19%    100.00% # Class of executed instruction
system.cpu.op_class::IprAccess                      0      0.00%    100.00% # Class of executed instruction
system.cpu.op_class::InstPrefetch                   0      0.00%    100.00% # Class of executed instruction
system.cpu.op_class::total                 2169766596                       # Class of executed instruction
system.cpu.workload.numSyscalls                   599                       # Number of system calls
system.membus.snoop_filter.hit_multi_requests            0                       # Number of requests hitting in the snoop filter with multiple (>1) holders of the requested data.
system.membus.snoop_filter.hit_multi_snoops            0                       # Number of snoops hitting in the snoop filter with multiple (>1) holders of the requested data.
system.membus.snoop_filter.hit_single_requests      1400699                       # Number of requests hitting in the snoop filter with a single holder of the requested data.
system.membus.snoop_filter.hit_single_snoops            0                       # Number of snoops hitting in the snoop filter with a single holder of the requested data.
system.membus.snoop_filter.tot_requests       2834430                       # Total number of requests made to the snoop filter.
system.membus.snoop_filter.tot_snoops               0                       # Total number of snoops made to the snoop filter.
system.tol2bus.snoop_filter.hit_multi_requests            0                       # Number of requests hitting in the snoop filter with multiple (>1) holders of the requested data.
system.tol2bus.snoop_filter.hit_multi_snoops            0                       # Number of snoops hitting in the snoop filter with multiple (>1) holders of the requested data.
system.tol2bus.snoop_filter.hit_single_requests     11762641                       # Number of requests hitting in the snoop filter with a single holder of the requested data.
system.tol2bus.snoop_filter.hit_single_snoops         2097                       # Number of snoops hitting in the snoop filter with a single holder of the requested data.
system.tol2bus.snoop_filter.tot_requests     23526306                       # Total number of requests made to the snoop filter.
system.tol2bus.snoop_filter.tot_snoops           2097                       # Total number of snoops made to the snoop filter.
system.membus.pwrStateResidencyTicks::UNDEFINED 1050122279616                       # Cumulative time (in ticks) in various power states
system.membus.trans_dist::ReadResp            1129347                       # Transaction distribution
system.membus.trans_dist::WritebackDirty       484706                       # Transaction distribution
system.membus.trans_dist::CleanEvict           915993                       # Transaction distribution
system.membus.trans_dist::ReadExReq            304384                       # Transaction distribution
system.membus.trans_dist::ReadExResp           304384                       # Transaction distribution
system.membus.trans_dist::ReadSharedReq       1129347                       # Transaction distribution
system.membus.pkt_count_system.l2.mem_side::system.mem_ctrls.port      4268161                       # Packet count per connected master and slave (bytes)
system.membus.pkt_count_system.l2.mem_side::total      4268161                       # Packet count per connected master and slave (bytes)
system.membus.pkt_count::total                4268161                       # Packet count per connected master and slave (bytes)
system.membus.pkt_size_system.l2.mem_side::system.mem_ctrls.port    122779968                       # Cumulative packet size per connected master and slave (bytes)
system.membus.pkt_size_system.l2.mem_side::total    122779968                       # Cumulative packet size per connected master and slave (bytes)
system.membus.pkt_size::total               122779968                       # Cumulative packet size per connected master and slave (bytes)
system.membus.snoops                                0                       # Total snoops (count)
system.membus.snoopTraffic                          0                       # Total snoop traffic (bytes)
system.membus.snoop_fanout::samples           1433731                       # Request fanout histogram
system.membus.snoop_fanout::mean                    0                       # Request fanout histogram
system.membus.snoop_fanout::stdev                   0                       # Request fanout histogram
system.membus.snoop_fanout::underflows              0      0.00%      0.00% # Request fanout histogram
system.membus.snoop_fanout::0                 1433731    100.00%    100.00% # Request fanout histogram
system.membus.snoop_fanout::1                       0      0.00%    100.00% # Request fanout histogram
system.membus.snoop_fanout::overflows               0      0.00%    100.00% # Request fanout histogram
system.membus.snoop_fanout::min_value               0                       # Request fanout histogram
system.membus.snoop_fanout::max_value               0                       # Request fanout histogram
system.membus.snoop_fanout::total             1433731                       # Request fanout histogram
system.tol2bus.pwrStateResidencyTicks::UNDEFINED 1050122279616                       # Cumulative time (in ticks) in various power states
system.tol2bus.trans_dist::ReadResp          11308569                       # Transaction distribution
system.tol2bus.trans_dist::WritebackDirty      2337631                       # Transaction distribution
system.tol2bus.trans_dist::WritebackClean      7888421                       # Transaction distribution
system.tol2bus.trans_dist::CleanEvict         1536589                       # Transaction distribution
system.tol2bus.trans_dist::ReadExReq           455096                       # Transaction distribution
system.tol2bus.trans_dist::ReadExResp          455096                       # Transaction distribution
system.tol2bus.trans_dist::ReadCleanReq       7888933                       # Transaction distribution
system.tol2bus.trans_dist::ReadSharedReq      3419636                       # Transaction distribution
system.tol2bus.pkt_count_system.cpu.icache.mem_side::system.l2.cpu_side     23666287                       # Packet count per connected master and slave (bytes)
system.tol2bus.pkt_count_system.cpu.dcache.mem_side::system.l2.cpu_side     11623684                       # Packet count per connected master and slave (bytes)
system.tol2bus.pkt_count::total              35289971                       # Packet count per connected master and slave (bytes)
system.tol2bus.pkt_size_system.cpu.icache.mem_side::system.l2.cpu_side   1009750656                       # Cumulative packet size per connected master and slave (bytes)
system.tol2bus.pkt_size_system.cpu.dcache.mem_side::system.l2.cpu_side    397591232                       # Cumulative packet size per connected master and slave (bytes)
system.tol2bus.pkt_size::total             1407341888                       # Cumulative packet size per connected master and slave (bytes)
system.tol2bus.snoops                         1402790                       # Total snoops (count)
system.tol2bus.snoopTraffic                  31021184                       # Total snoop traffic (bytes)
system.tol2bus.snoop_fanout::samples         13166455                       # Request fanout histogram
system.tol2bus.snoop_fanout::mean            0.000159                       # Request fanout histogram
system.tol2bus.snoop_fanout::stdev           0.012619                       # Request fanout histogram
system.tol2bus.snoop_fanout::underflows             0      0.00%      0.00% # Request fanout histogram
system.tol2bus.snoop_fanout::0               13164358     99.98%     99.98% # Request fanout histogram
system.tol2bus.snoop_fanout::1                   2097      0.02%    100.00% # Request fanout histogram
system.tol2bus.snoop_fanout::2                      0      0.00%    100.00% # Request fanout histogram
system.tol2bus.snoop_fanout::3                      0      0.00%    100.00% # Request fanout histogram
system.tol2bus.snoop_fanout::4                      0      0.00%    100.00% # Request fanout histogram
system.tol2bus.snoop_fanout::overflows              0      0.00%    100.00% # Request fanout histogram
system.tol2bus.snoop_fanout::min_value              0                       # Request fanout histogram
system.tol2bus.snoop_fanout::max_value              1                       # Request fanout histogram
system.tol2bus.snoop_fanout::total           13166455                       # Request fanout histogram
system.voltage_domain.voltage                       1                       # Voltage in Volts
system.clk_domain.clock                          1000                       # Clock period in ticks
system.l2.pwrStateResidencyTicks::UNDEFINED 1050122279616                       # Cumulative time (in ticks) in various power states
system.l2.demand_hits::.cpu.inst              7885081                       # number of demand (read+write) hits
system.l2.demand_hits::.cpu.data              2444853                       # number of demand (read+write) hits
system.l2.demand_hits::total                 10329934                       # number of demand (read+write) hits
system.l2.overall_hits::.cpu.inst             7885081                       # number of overall hits
system.l2.overall_hits::.cpu.data             2444853                       # number of overall hits
system.l2.overall_hits::total                10329934                       # number of overall hits
system.l2.demand_misses::.cpu.inst               3852                       # number of demand (read+write) misses
system.l2.demand_misses::.cpu.data            1429879                       # number of demand (read+write) misses
system.l2.demand_misses::total                1433731                       # number of demand (read+write) misses
system.l2.overall_misses::.cpu.inst              3852                       # number of overall misses
system.l2.overall_misses::.cpu.data           1429879                       # number of overall misses
system.l2.overall_misses::total               1433731                       # number of overall misses
system.l2.demand_accesses::.cpu.inst          7888933                       # number of demand (read+write) accesses
system.l2.demand_accesses::.cpu.data          3874732                       # number of demand (read+write) accesses
system.l2.demand_accesses::total             11763665                       # number of demand (read+write) accesses
system.l2.overall_accesses::.cpu.inst         7888933                       # number of overall (read+write) accesses
system.l2.overall_accesses::.cpu.data         3874732                       # number of overall (read+write) accesses
system.l2.overall_accesses::total            11763665                       # number of overall (read+write) accesses
system.l2.demand_miss_rate::.cpu.inst        0.000488                       # miss rate for demand accesses
system.l2.demand_miss_rate::.cpu.data        0.369027                       # miss rate for demand accesses
system.l2.demand_miss_rate::total            0.121878                       # miss rate for demand accesses
system.l2.overall_miss_rate::.cpu.inst       0.000488                       # miss rate for overall accesses
system.l2.overall_miss_rate::.cpu.data       0.369027                       # miss rate for overall accesses
system.l2.overall_miss_rate::total           0.121878                       # miss rate for overall accesses
system.l2.blocked_cycles::no_mshrs                  0                       # number of cycles access was blocked
system.l2.blocked_cycles::no_targets                0                       # number of cycles access was blocked
system.l2.blocked::no_mshrs                         0                       # number of cycles access was blocked
system.l2.blocked::no_targets                       0                       # number of cycles access was blocked
system.l2.avg_blocked_cycles::no_mshrs            nan                       # average number of cycles each access was blocked
system.l2.avg_blocked_cycles::no_targets          nan                       # average number of cycles each access was blocked
system.l2.writebacks::.writebacks              484706                       # number of writebacks
system.l2.writebacks::total                    484706                       # number of writebacks
system.l2.replacements                        1402790                       # number of replacements
system.l2.WritebackDirty_hits::.writebacks      2337631                       # number of WritebackDirty hits
system.l2.WritebackDirty_hits::total          2337631                       # number of WritebackDirty hits
system.l2.WritebackDirty_accesses::.writebacks      2337631                       # number of WritebackDirty accesses(hits+misses)
system.l2.WritebackDirty_accesses::total      2337631                       # number of WritebackDirty accesses(hits+misses)
system.l2.WritebackClean_hits::.writebacks      7888421                       # number of WritebackClean hits
system.l2.WritebackClean_hits::total          7888421                       # number of WritebackClean hits
system.l2.WritebackClean_accesses::.writebacks      7888421                       # number of WritebackClean accesses(hits+misses)
system.l2.WritebackClean_accesses::total      7888421                       # number of WritebackClean accesses(hits+misses)
system.l2.ReadExReq_hits::.cpu.data            150712                       # number of ReadExReq hits
system.l2.ReadExReq_hits::total                150712                       # number of ReadExReq hits
system.l2.ReadExReq_misses::.cpu.data          304384                       # number of ReadExReq misses
system.l2.ReadExReq_misses::total              304384                       # number of ReadExReq misses
system.l2.ReadExReq_accesses::.cpu.data        455096                       # number of ReadExReq accesses(hits+misses)
system.l2.ReadExReq_accesses::total            455096                       # number of ReadExReq accesses(hits+misses)
system.l2.ReadExReq_miss_rate::.cpu.data     0.668835                       # miss rate for ReadExReq accesses
system.l2.ReadExReq_miss_rate::total         0.668835                       # miss rate for ReadExReq accesses
system.l2.ReadCleanReq_hits::.cpu.inst        7885081                       # number of ReadCleanReq hits
system.l2.ReadCleanReq_hits::total            7885081                       # number of ReadCleanReq hits
system.l2.ReadCleanReq_misses::.cpu.inst         3852                       # number of ReadCleanReq misses
system.l2.ReadCleanReq_misses::total             3852                       # number of ReadCleanReq misses
system.l2.ReadCleanReq_accesses::.cpu.inst      7888933                       # number of ReadCleanReq accesses(hits+misses)
system.l2.ReadCleanReq_accesses::total        7888933                       # number of ReadCleanReq accesses(hits+misses)
system.l2.ReadCleanReq_miss_rate::.cpu.inst     0.000488                       # miss rate for ReadCleanReq accesses
system.l2.ReadCleanReq_miss_rate::total      0.000488                       # miss rate for ReadCleanReq accesses
system.l2.ReadSharedReq_hits::.cpu.data       2294141                       # number of ReadSharedReq hits
system.l2.ReadSharedReq_hits::total           2294141                       # number of ReadSharedReq hits
system.l2.ReadSharedReq_misses::.cpu.data      1125495                       # number of ReadSharedReq misses
system.l2.ReadSharedReq_misses::total         1125495                       # number of ReadSharedReq misses
system.l2.ReadSharedReq_accesses::.cpu.data      3419636                       # number of ReadSharedReq accesses(hits+misses)
system.l2.ReadSharedReq_accesses::total       3419636                       # number of ReadSharedReq accesses(hits+misses)
system.l2.ReadSharedReq_miss_rate::.cpu.data     0.329127                       # miss rate for ReadSharedReq accesses
system.l2.ReadSharedReq_miss_rate::total     0.329127                       # miss rate for ReadSharedReq accesses
system.l2.tags.pwrStateResidencyTicks::UNDEFINED 1050122279616                       # Cumulative time (in ticks) in various power states
system.l2.tags.tagsinuse                 29062.804505                       # Cycle average of tags in use
system.l2.tags.total_refs                    23526300                       # Total number of references to valid blocks.
system.l2.tags.sampled_refs                   1435558                       # Sample count of references to valid blocks.
system.l2.tags.avg_refs                     16.388262                       # Average number of references to valid blocks.
system.l2.tags.warmup_cycle                         0                       # Cycle when the warmup percentage was hit.
system.l2.tags.occ_blocks::.writebacks      26.285752                       # Average occupied blocks per requestor
system.l2.tags.occ_blocks::.cpu.inst       919.291192                       # Average occupied blocks per requestor
system.l2.tags.occ_blocks::.cpu.data     28117.227561                       # Average occupied blocks per requestor
system.l2.tags.occ_percent::.writebacks      0.000802                       # Average percentage of cache occupancy
system.l2.tags.occ_percent::.cpu.inst        0.028055                       # Average percentage of cache occupancy
system.l2.tags.occ_percent::.cpu.data        0.858070                       # Average percentage of cache occupancy
system.l2.tags.occ_percent::total            0.886926                       # Average percentage of cache occupancy
system.l2.tags.occ_task_id_blocks::1024         32768                       # Occupied blocks per task id
system.l2.tags.age_task_id_blocks_1024::0          567                       # Occupied blocks per task id
system.l2.tags.age_task_id_blocks_1024::1         1269                       # Occupied blocks per task id
system.l2.tags.age_task_id_blocks_1024::2        10361                       # Occupied blocks per task id
system.l2.tags.age_task_id_blocks_1024::3        15693                       # Occupied blocks per task id
system.l2.tags.age_task_id_blocks_1024::4         4878                       # Occupied blocks per task id
system.l2.tags.occ_task_id_percent::1024            1                       # Percentage of cache occupancy per task id
system.l2.tags.tag_accesses                 189646006                       # Number of tag accesses
system.l2.tags.data_accesses                189646006                       # Number of data accesses
system.cpu_voltage_domain.voltage                   1                       # Voltage in Volts
system.mem_ctrls.pwrStateResidencyTicks::UNDEFINED 1050122279616                       # Cumulative time (in ticks) in various power states
system.mem_ctrls.bytes_read::.cpu.inst         246528                       # Number of bytes read from this memory
system.mem_ctrls.bytes_read::.cpu.data       91512256                       # Number of bytes read from this memory
system.mem_ctrls.bytes_read::total           91758784                       # Number of bytes read from this memory
system.mem_ctrls.bytes_inst_read::.cpu.inst       246528                       # Number of instructions bytes read from this memory
system.mem_ctrls.bytes_inst_read::total        246528                       # Number of instructions bytes read from this memory
system.mem_ctrls.bytes_written::.writebacks     31021184                       # Number of bytes written to this memory
system.mem_ctrls.bytes_written::total        31021184                       # Number of bytes written to this memory
system.mem_ctrls.num_reads::.cpu.inst            3852                       # Number of read requests responded to by this memory
system.mem_ctrls.num_reads::.cpu.data         1429879                       # Number of read requests responded to by this memory
system.mem_ctrls.num_reads::total             1433731                       # Number of read requests responded to by this memory
system.mem_ctrls.num_writes::.writebacks       484706                       # Number of write requests responded to by this memory
system.mem_ctrls.num_writes::total             484706                       # Number of write requests responded to by this memory
system.mem_ctrls.bw_read::.cpu.inst            234761                       # Total read bandwidth from this memory (bytes/s)
system.mem_ctrls.bw_read::.cpu.data          87144381                       # Total read bandwidth from this memory (bytes/s)
system.mem_ctrls.bw_read::total              87379142                       # Total read bandwidth from this memory (bytes/s)
system.mem_ctrls.bw_inst_read::.cpu.inst       234761                       # Instruction read bandwidth from this memory (bytes/s)
system.mem_ctrls.bw_inst_read::total           234761                       # Instruction read bandwidth from this memory (bytes/s)
system.mem_ctrls.bw_write::.writebacks       29540545                       # Write bandwidth from this memory (bytes/s)
system.mem_ctrls.bw_write::total             29540545                       # Write bandwidth from this memory (bytes/s)
system.mem_ctrls.bw_total::.writebacks       29540545                       # Total bandwidth to/from this memory (bytes/s)
system.mem_ctrls.bw_total::.cpu.inst           234761                       # Total bandwidth to/from this memory (bytes/s)
system.mem_ctrls.bw_total::.cpu.data         87144381                       # Total bandwidth to/from this memory (bytes/s)
system.mem_ctrls.bw_total::total            116919687                       # Total bandwidth to/from this memory (bytes/s)
system.mem_ctrls.priorityMinLatency      0.000000000000                       # per QoS priority minimum request to response latency (s)
system.mem_ctrls.priorityMaxLatency      0.000000000000                       # per QoS priority maximum request to response latency (s)
system.mem_ctrls.numReadWriteTurnArounds            0                       # Number of turnarounds from READ to WRITE
system.mem_ctrls.numWriteReadTurnArounds            0                       # Number of turnarounds from WRITE to READ
system.mem_ctrls.numStayReadState                   0                       # Number of times bus staying in READ state
system.mem_ctrls.numStayWriteState                  0                       # Number of times bus staying in WRITE state
system.mem_ctrls.readReqs                           0                       # Number of read requests accepted
system.mem_ctrls.writeReqs                          0                       # Number of write requests accepted
system.mem_ctrls.readBursts                         0                       # Number of DRAM read bursts, including those serviced by the write queue
system.mem_ctrls.writeBursts                        0                       # Number of DRAM write bursts, including those merged in the write queue
system.mem_ctrls.servicedByWrQ                      0                       # Number of DRAM read bursts serviced by the write queue
system.mem_ctrls.mergedWrBursts                     0                       # Number of DRAM write bursts merged with an existing one
system.mem_ctrls.neitherReadNorWriteReqs            0                       # Number of requests that are neither read nor write
system.mem_ctrls.perBankRdBursts::0                 0                       # Per bank write bursts
system.mem_ctrls.perBankRdBursts::1                 0                       # Per bank write bursts
system.mem_ctrls.perBankRdBursts::2                 0                       # Per bank write bursts
system.mem_ctrls.perBankRdBursts::3                 0                       # Per bank write bursts
system.mem_ctrls.perBankRdBursts::4                 0                       # Per bank write bursts
system.mem_ctrls.perBankRdBursts::5                 0                       # Per bank write bursts
system.mem_ctrls.perBankRdBursts::6                 0                       # Per bank write bursts
system.mem_ctrls.perBankRdBursts::7                 0                       # Per bank write bursts
system.mem_ctrls.perBankRdBursts::8                 0                       # Per bank write bursts
system.mem_ctrls.perBankRdBursts::9                 0                       # Per bank write bursts
system.mem_ctrls.perBankRdBursts::10                0                       # Per bank write bursts
system.mem_ctrls.perBankRdBursts::11                0                       # Per bank write bursts
system.mem_ctrls.perBankRdBursts::12                0                       # Per bank write bursts
system.mem_ctrls.perBankRdBursts::13                0                       # Per bank write bursts
system.mem_ctrls.perBankRdBursts::14                0                       # Per bank write bursts
system.mem_ctrls.perBankRdBursts::15                0                       # Per bank write bursts
system.mem_ctrls.perBankWrBursts::0                 0                       # Per bank write bursts
system.mem_ctrls.perBankWrBursts::1                 0                       # Per bank write bursts
system.mem_ctrls.perBankWrBursts::2                 0                       # Per bank write bursts
system.mem_ctrls.perBankWrBursts::3                 0                       # Per bank write bursts
system.mem_ctrls.perBankWrBursts::4                 0                       # Per bank write bursts
system.mem_ctrls.perBankWrBursts::5                 0                       # Per bank write bursts
system.mem_ctrls.perBankWrBursts::6                 0                       # Per bank write bursts
system.mem_ctrls.perBankWrBursts::7                 0                       # Per bank write bursts
system.mem_ctrls.perBankWrBursts::8                 0                       # Per bank write bursts
system.mem_ctrls.perBankWrBursts::9                 0                       # Per bank write bursts
system.mem_ctrls.perBankWrBursts::10                0                       # Per bank write bursts
system.mem_ctrls.perBankWrBursts::11                0                       # Per bank write bursts
system.mem_ctrls.perBankWrBursts::12                0                       # Per bank write bursts
system.mem_ctrls.perBankWrBursts::13                0                       # Per bank write bursts
system.mem_ctrls.perBankWrBursts::14                0                       # Per bank write bursts
system.mem_ctrls.perBankWrBursts::15                0                       # Per bank write bursts
system.mem_ctrls.avgRdQLen                       0.00                       # Average read queue length when enqueuing
system.mem_ctrls.avgWrQLen                       0.00                       # Average write queue length when enqueuing
system.mem_ctrls.totQLat                            0                       # Total ticks spent queuing
system.mem_ctrls.totBusLat                          0                       # Total ticks spent in databus transfers
system.mem_ctrls.totMemAccLat                       0                       # Total ticks spent from burst creation until serviced by the DRAM
system.mem_ctrls.avgQLat                          nan                       # Average queueing delay per DRAM burst
system.mem_ctrls.avgBusLat                        nan                       # Average bus latency per DRAM burst
system.mem_ctrls.avgMemAccLat                     nan                       # Average memory access latency per DRAM burst
system.mem_ctrls.numRdRetry                         0                       # Number of times read queue was full causing retry
system.mem_ctrls.numWrRetry                         0                       # Number of times write queue was full causing retry
system.mem_ctrls.readRowHits                        0                       # Number of row buffer hits during reads
system.mem_ctrls.writeRowHits                       0                       # Number of row buffer hits during writes
system.mem_ctrls.readRowHitRate                   nan                       # Row buffer hit rate for reads
system.mem_ctrls.writeRowHitRate                  nan                       # Row buffer hit rate for writes
system.mem_ctrls.readPktSize::0                     0                       # Read request sizes (log2)
system.mem_ctrls.readPktSize::1                     0                       # Read request sizes (log2)
system.mem_ctrls.readPktSize::2                     0                       # Read request sizes (log2)
system.mem_ctrls.readPktSize::3                     0                       # Read request sizes (log2)
system.mem_ctrls.readPktSize::4                     0                       # Read request sizes (log2)
system.mem_ctrls.readPktSize::5                     0                       # Read request sizes (log2)
system.mem_ctrls.readPktSize::6                     0                       # Read request sizes (log2)
system.mem_ctrls.writePktSize::0                    0                       # Write request sizes (log2)
system.mem_ctrls.writePktSize::1                    0                       # Write request sizes (log2)
system.mem_ctrls.writePktSize::2                    0                       # Write request sizes (log2)
system.mem_ctrls.writePktSize::3                    0                       # Write request sizes (log2)
system.mem_ctrls.writePktSize::4                    0                       # Write request sizes (log2)
system.mem_ctrls.writePktSize::5                    0                       # Write request sizes (log2)
system.mem_ctrls.writePktSize::6                    0                       # Write request sizes (log2)
system.mem_ctrls.rdQLenPdf::0                       0                       # What read queue length does an incoming req see
system.mem_ctrls.rdQLenPdf::1                       0                       # What read queue length does an incoming req see
system.mem_ctrls.rdQLenPdf::2                       0                       # What read queue length does an incoming req see
system.mem_ctrls.rdQLenPdf::3                       0                       # What read queue length does an incoming req see
system.mem_ctrls.rdQLenPdf::4                       0                       # What read queue length does an incoming req see
system.mem_ctrls.rdQLenPdf::5                       0                       # What read queue length does an incoming req see
system.mem_ctrls.rdQLenPdf::6                       0                       # What read queue length does an incoming req see
system.mem_ctrls.rdQLenPdf::7                       0                       # What read queue length does an incoming req see
system.mem_ctrls.rdQLenPdf::8                       0                       # What read queue length does an incoming req see
system.mem_ctrls.rdQLenPdf::9                       0                       # What read queue length does an incoming req see
system.mem_ctrls.rdQLenPdf::10                      0                       # What read queue length does an incoming req see
system.mem_ctrls.rdQLenPdf::11                      0                       # What read queue length does an incoming req see
system.mem_ctrls.rdQLenPdf::12                      0                       # What read queue length does an incoming req see
system.mem_ctrls.rdQLenPdf::13                      0                       # What read queue length does an incoming req see
system.mem_ctrls.rdQLenPdf::14                      0                       # What read queue length does an incoming req see
system.mem_ctrls.rdQLenPdf::15                      0                       # What read queue length does an incoming req see
system.mem_ctrls.rdQLenPdf::16                      0                       # What read queue length does an incoming req see
system.mem_ctrls.rdQLenPdf::17                      0                       # What read queue length does an incoming req see
system.mem_ctrls.rdQLenPdf::18                      0                       # What read queue length does an incoming req see
system.mem_ctrls.rdQLenPdf::19                      0                       # What read queue length does an incoming req see
system.mem_ctrls.rdQLenPdf::20                      0                       # What read queue length does an incoming req see
system.mem_ctrls.rdQLenPdf::21                      0                       # What read queue length does an incoming req see
system.mem_ctrls.rdQLenPdf::22                      0                       # What read queue length does an incoming req see
system.mem_ctrls.rdQLenPdf::23                      0                       # What read queue length does an incoming req see
system.mem_ctrls.rdQLenPdf::24                      0                       # What read queue length does an incoming req see
system.mem_ctrls.rdQLenPdf::25                      0                       # What read queue length does an incoming req see
system.mem_ctrls.rdQLenPdf::26                      0                       # What read queue length does an incoming req see
system.mem_ctrls.rdQLenPdf::27                      0                       # What read queue length does an incoming req see
system.mem_ctrls.rdQLenPdf::28                      0                       # What read queue length does an incoming req see
system.mem_ctrls.rdQLenPdf::29                      0                       # What read queue length does an incoming req see
system.mem_ctrls.rdQLenPdf::30                      0                       # What read queue length does an incoming req see
system.mem_ctrls.rdQLenPdf::31                      0                       # What read queue length does an incoming req see
system.mem_ctrls.wrQLenPdf::0                       0                       # What write queue length does an incoming req see
system.mem_ctrls.wrQLenPdf::1                       0                       # What write queue length does an incoming req see
system.mem_ctrls.wrQLenPdf::2                       0                       # What write queue length does an incoming req see
system.mem_ctrls.wrQLenPdf::3                       0                       # What write queue length does an incoming req see
system.mem_ctrls.wrQLenPdf::4                       0                       # What write queue length does an incoming req see
system.mem_ctrls.wrQLenPdf::5                       0                       # What write queue length does an incoming req see
system.mem_ctrls.wrQLenPdf::6                       0                       # What write queue length does an incoming req see
system.mem_ctrls.wrQLenPdf::7                       0                       # What write queue length does an incoming req see
system.mem_ctrls.wrQLenPdf::8                       0                       # What write queue length does an incoming req see
system.mem_ctrls.wrQLenPdf::9                       0                       # What write queue length does an incoming req see
system.mem_ctrls.wrQLenPdf::10                      0                       # What write queue length does an incoming req see
system.mem_ctrls.wrQLenPdf::11                      0                       # What write queue length does an incoming req see
system.mem_ctrls.wrQLenPdf::12                      0                       # What write queue length does an incoming req see
system.mem_ctrls.wrQLenPdf::13                      0                       # What write queue length does an incoming req see
system.mem_ctrls.wrQLenPdf::14                      0                       # What write queue length does an incoming req see
system.mem_ctrls.wrQLenPdf::15                      0                       # What write queue length does an incoming req see
system.mem_ctrls.wrQLenPdf::16                      0                       # What write queue length does an incoming req see
system.mem_ctrls.wrQLenPdf::17                      0                       # What write queue length does an incoming req see
system.mem_ctrls.wrQLenPdf::18                      0                       # What write queue length does an incoming req see
system.mem_ctrls.wrQLenPdf::19                      0                       # What write queue length does an incoming req see
system.mem_ctrls.wrQLenPdf::20                      0                       # What write queue length does an incoming req see
system.mem_ctrls.wrQLenPdf::21                      0                       # What write queue length does an incoming req see
system.mem_ctrls.wrQLenPdf::22                      0                       # What write queue length does an incoming req see
system.mem_ctrls.wrQLenPdf::23                      0                       # What write queue length does an incoming req see
system.mem_ctrls.wrQLenPdf::24                      0                       # What write queue length does an incoming req see
system.mem_ctrls.wrQLenPdf::25                      0                       # What write queue length does an incoming req see
system.mem_ctrls.wrQLenPdf::26                      0                       # What write queue length does an incoming req see
system.mem_ctrls.wrQLenPdf::27                      0                       # What write queue length does an incoming req see
system.mem_ctrls.wrQLenPdf::28                      0                       # What write queue length does an incoming req see
system.mem_ctrls.wrQLenPdf::29                      0                       # What write queue length does an incoming req see
system.mem_ctrls.wrQLenPdf::30                      0                       # What write queue length does an incoming req see
system.mem_ctrls.wrQLenPdf::31                      0                       # What write queue length does an incoming req see
system.mem_ctrls.wrQLenPdf::32                      0                       # What write queue length does an incoming req see
system.mem_ctrls.wrQLenPdf::33                      0                       # What write queue length does an incoming req see
system.mem_ctrls.wrQLenPdf::34                      0                       # What write queue length does an incoming req see
system.mem_ctrls.wrQLenPdf::35                      0                       # What write queue length does an incoming req see
system.mem_ctrls.wrQLenPdf::36                      0                       # What write queue length does an incoming req see
system.mem_ctrls.wrQLenPdf::37                      0                       # What write queue length does an incoming req see
system.mem_ctrls.wrQLenPdf::38                      0                       # What write queue length does an incoming req see
system.mem_ctrls.wrQLenPdf::39                      0                       # What write queue length does an incoming req see
system.mem_ctrls.wrQLenPdf::40                      0                       # What write queue length does an incoming req see
system.mem_ctrls.wrQLenPdf::41                      0                       # What write queue length does an incoming req see
system.mem_ctrls.wrQLenPdf::42                      0                       # What write queue length does an incoming req see
system.mem_ctrls.wrQLenPdf::43                      0                       # What write queue length does an incoming req see
system.mem_ctrls.wrQLenPdf::44                      0                       # What write queue length does an incoming req see
system.mem_ctrls.wrQLenPdf::45                      0                       # What write queue length does an incoming req see
system.mem_ctrls.wrQLenPdf::46                      0                       # What write queue length does an incoming req see
system.mem_ctrls.wrQLenPdf::47                      0                       # What write queue length does an incoming req see
system.mem_ctrls.wrQLenPdf::48                      0                       # What write queue length does an incoming req see
system.mem_ctrls.wrQLenPdf::49                      0                       # What write queue length does an incoming req see
system.mem_ctrls.wrQLenPdf::50                      0                       # What write queue length does an incoming req see
system.mem_ctrls.wrQLenPdf::51                      0                       # What write queue length does an incoming req see
system.mem_ctrls.wrQLenPdf::52                      0                       # What write queue length does an incoming req see
system.mem_ctrls.wrQLenPdf::53                      0                       # What write queue length does an incoming req see
system.mem_ctrls.wrQLenPdf::54                      0                       # What write queue length does an incoming req see
system.mem_ctrls.wrQLenPdf::55                      0                       # What write queue length does an incoming req see
system.mem_ctrls.wrQLenPdf::56                      0                       # What write queue length does an incoming req see
system.mem_ctrls.wrQLenPdf::57                      0                       # What write queue length does an incoming req see
system.mem_ctrls.wrQLenPdf::58                      0                       # What write queue length does an incoming req see
system.mem_ctrls.wrQLenPdf::59                      0                       # What write queue length does an incoming req see
system.mem_ctrls.wrQLenPdf::60                      0                       # What write queue length does an incoming req see
system.mem_ctrls.wrQLenPdf::61                      0                       # What write queue length does an incoming req see
system.mem_ctrls.wrQLenPdf::62                      0                       # What write queue length does an incoming req see
system.mem_ctrls.wrQLenPdf::63                      0                       # What write queue length does an incoming req see
system.mem_ctrls.bytesReadDRAM                      0                       # Total number of bytes read from DRAM
system.mem_ctrls.bytesReadWrQ                       0                       # Total number of bytes read from write queue
system.mem_ctrls.bytesWritten                       0                       # Total number of bytes written to DRAM
system.mem_ctrls.bytesReadSys                       0                       # Total read bytes from the system interface side
system.mem_ctrls.bytesWrittenSys                    0                       # Total written bytes from the system interface side
system.mem_ctrls.avgRdBW                         0.00                       # Average DRAM read bandwidth in MiByte/s
system.mem_ctrls.avgWrBW                         0.00                       # Average achieved write bandwidth in MiByte/s
system.mem_ctrls.avgRdBWSys                      0.00                       # Average system read bandwidth in MiByte/s
system.mem_ctrls.avgWrBWSys                      0.00                       # Average system write bandwidth in MiByte/s
system.mem_ctrls.peakBW                      12800.00                       # Theoretical peak bandwidth in MiByte/s
system.mem_ctrls.busUtil                         0.00                       # Data bus utilization in percentage
system.mem_ctrls.busUtilRead                     0.00                       # Data bus utilization in percentage for reads
system.mem_ctrls.busUtilWrite                    0.00                       # Data bus utilization in percentage for writes
system.mem_ctrls.totGap                             0                       # Total gap between requests
system.mem_ctrls.avgGap                           nan                       # Average gap between requests
system.mem_ctrls.pageHitRate                      nan                       # Row buffer hit rate, read and write combined
system.mem_ctrls.rank1.actEnergy                    0                       # Energy for activate commands per rank (pJ)
system.mem_ctrls.rank1.preEnergy                    0                       # Energy for precharge commands per rank (pJ)
system.mem_ctrls.rank1.readEnergy                   0                       # Energy for read commands per rank (pJ)
system.mem_ctrls.rank1.writeEnergy                  0                       # Energy for write commands per rank (pJ)
system.mem_ctrls.rank1.refreshEnergy                0                       # Energy for refresh commands per rank (pJ)
system.mem_ctrls.rank1.actBackEnergy                0                       # Energy for active background per rank (pJ)
system.mem_ctrls.rank1.preBackEnergy     403246955520                       # Energy for precharge background per rank (pJ)
system.mem_ctrls.rank1.actPowerDownEnergy            0                       # Energy for active power-down per rank (pJ)
system.mem_ctrls.rank1.prePowerDownEnergy            0                       # Energy for precharge power-down per rank (pJ)
system.mem_ctrls.rank1.selfRefreshEnergy            0                       # Energy for self refresh per rank (pJ)
system.mem_ctrls.rank1.totalEnergy       403246955520                       # Total energy per rank (pJ)
system.mem_ctrls.rank1.averagePower        384.000000                       # Core power per rank (mW)
system.mem_ctrls.rank1.totalIdleTime                0                       # Total Idle time Per DRAM Rank
system.mem_ctrls.rank1.memoryStateTime::IDLE 1050122279616                       # Time in different power states
system.mem_ctrls.rank1.memoryStateTime::REF            0                       # Time in different power states
system.mem_ctrls.rank1.memoryStateTime::SREF            0                       # Time in different power states
system.mem_ctrls.rank1.memoryStateTime::PRE_PDN            0                       # Time in different power states
system.mem_ctrls.rank1.memoryStateTime::ACT            0                       # Time in different power states
system.mem_ctrls.rank1.memoryStateTime::ACT_PDN            0                       # Time in different power states
system.mem_ctrls.rank0.actEnergy                    0                       # Energy for activate commands per rank (pJ)
system.mem_ctrls.rank0.preEnergy                    0                       # Energy for precharge commands per rank (pJ)
system.mem_ctrls.rank0.readEnergy                   0                       # Energy for read commands per rank (pJ)
system.mem_ctrls.rank0.writeEnergy                  0                       # Energy for write commands per rank (pJ)
system.mem_ctrls.rank0.refreshEnergy                0                       # Energy for refresh commands per rank (pJ)
system.mem_ctrls.rank0.actBackEnergy                0                       # Energy for active background per rank (pJ)
system.mem_ctrls.rank0.preBackEnergy     403246955520                       # Energy for precharge background per rank (pJ)
system.mem_ctrls.rank0.actPowerDownEnergy            0                       # Energy for active power-down per rank (pJ)
system.mem_ctrls.rank0.prePowerDownEnergy            0                       # Energy for precharge power-down per rank (pJ)
system.mem_ctrls.rank0.selfRefreshEnergy            0                       # Energy for self refresh per rank (pJ)
system.mem_ctrls.rank0.totalEnergy       403246955520                       # Total energy per rank (pJ)
system.mem_ctrls.rank0.averagePower        384.000000                       # Core power per rank (mW)
system.mem_ctrls.rank0.totalIdleTime                0                       # Total Idle time Per DRAM Rank
system.mem_ctrls.rank0.memoryStateTime::IDLE 1050122279616                       # Time in different power states
system.mem_ctrls.rank0.memoryStateTime::REF            0                       # Time in different power states
system.mem_ctrls.rank0.memoryStateTime::SREF            0                       # Time in different power states
system.mem_ctrls.rank0.memoryStateTime::PRE_PDN            0                       # Time in different power states
system.mem_ctrls.rank0.memoryStateTime::ACT            0                       # Time in different power states
system.mem_ctrls.rank0.memoryStateTime::ACT_PDN            0                       # Time in different power states
system.cpu_clk_domain.clock                       417                       # Clock period in ticks
system.cpu.numPwrStateTransitions                   1                       # Number of power state transitions
system.cpu.pwrStateResidencyTicks::ON    1050122279616                       # Cumulative time (in ticks) in various power states
system.cpu.icache.pwrStateResidencyTicks::UNDEFINED 1050122279616                       # Cumulative time (in ticks) in various power states
system.cpu.icache.demand_hits::.cpu.inst   1432493491                       # number of demand (read+write) hits
system.cpu.icache.demand_hits::total       1432493491                       # number of demand (read+write) hits
system.cpu.icache.overall_hits::.cpu.inst   1432493491                       # number of overall hits
system.cpu.icache.overall_hits::total      1432493491                       # number of overall hits
system.cpu.icache.demand_misses::.cpu.inst      7888933                       # number of demand (read+write) misses
system.cpu.icache.demand_misses::total        7888933                       # number of demand (read+write) misses
system.cpu.icache.overall_misses::.cpu.inst      7888933                       # number of overall misses
system.cpu.icache.overall_misses::total       7888933                       # number of overall misses
system.cpu.icache.demand_accesses::.cpu.inst   1440382424                       # number of demand (read+write) accesses
system.cpu.icache.demand_accesses::total   1440382424                       # number of demand (read+write) accesses
system.cpu.icache.overall_accesses::.cpu.inst   1440382424                       # number of overall (read+write) accesses
system.cpu.icache.overall_accesses::total   1440382424                       # number of overall (read+write) accesses
system.cpu.icache.demand_miss_rate::.cpu.inst     0.005477                       # miss rate for demand accesses
system.cpu.icache.demand_miss_rate::total     0.005477                       # miss rate for demand accesses
system.cpu.icache.overall_miss_rate::.cpu.inst     0.005477                       # miss rate for overall accesses
system.cpu.icache.overall_miss_rate::total     0.005477                       # miss rate for overall accesses
system.cpu.icache.blocked_cycles::no_mshrs            0                       # number of cycles access was blocked
system.cpu.icache.blocked_cycles::no_targets            0                       # number of cycles access was blocked
system.cpu.icache.blocked::no_mshrs                 0                       # number of cycles access was blocked
system.cpu.icache.blocked::no_targets               0                       # number of cycles access was blocked
system.cpu.icache.avg_blocked_cycles::no_mshrs          nan                       # average number of cycles each access was blocked
system.cpu.icache.avg_blocked_cycles::no_targets          nan                       # average number of cycles each access was blocked
system.cpu.icache.writebacks::.writebacks      7888421                       # number of writebacks
system.cpu.icache.writebacks::total           7888421                       # number of writebacks
system.cpu.icache.replacements                7888421                       # number of replacements
system.cpu.icache.ReadReq_hits::.cpu.inst   1432493491                       # number of ReadReq hits
system.cpu.icache.ReadReq_hits::total      1432493491                       # number of ReadReq hits
system.cpu.icache.ReadReq_misses::.cpu.inst      7888933                       # number of ReadReq misses
system.cpu.icache.ReadReq_misses::total       7888933                       # number of ReadReq misses
system.cpu.icache.ReadReq_accesses::.cpu.inst   1440382424                       # number of ReadReq accesses(hits+misses)
system.cpu.icache.ReadReq_accesses::total   1440382424                       # number of ReadReq accesses(hits+misses)
system.cpu.icache.ReadReq_miss_rate::.cpu.inst     0.005477                       # miss rate for ReadReq accesses
system.cpu.icache.ReadReq_miss_rate::total     0.005477                       # miss rate for ReadReq accesses
system.cpu.icache.tags.pwrStateResidencyTicks::UNDEFINED 1050122279616                       # Cumulative time (in ticks) in various power states
system.cpu.icache.tags.tagsinuse           511.898139                       # Cycle average of tags in use
system.cpu.icache.tags.total_refs          1440382424                       # Total number of references to valid blocks.
system.cpu.icache.tags.sampled_refs           7888933                       # Sample count of references to valid blocks.
system.cpu.icache.tags.avg_refs            182.582667                       # Average number of references to valid blocks.
system.cpu.icache.tags.warmup_cycle                 0                       # Cycle when the warmup percentage was hit.
system.cpu.icache.tags.occ_blocks::.cpu.inst   511.898139                       # Average occupied blocks per requestor
system.cpu.icache.tags.occ_percent::.cpu.inst     0.999801                       # Average percentage of cache occupancy
system.cpu.icache.tags.occ_percent::total     0.999801                       # Average percentage of cache occupancy
system.cpu.icache.tags.occ_task_id_blocks::1024          512                       # Occupied blocks per task id
system.cpu.icache.tags.age_task_id_blocks_1024::0          143                       # Occupied blocks per task id
system.cpu.icache.tags.age_task_id_blocks_1024::1          105                       # Occupied blocks per task id
system.cpu.icache.tags.age_task_id_blocks_1024::4          264                       # Occupied blocks per task id
system.cpu.icache.tags.occ_task_id_percent::1024            1                       # Percentage of cache occupancy per task id
system.cpu.icache.tags.tag_accesses        2888653781                       # Number of tag accesses
system.cpu.icache.tags.data_accesses       2888653781                       # Number of data accesses
system.cpu.dtb.walker.pwrStateResidencyTicks::UNDEFINED 1050122279616                       # Cumulative time (in ticks) in various power states
system.cpu.interrupts.clk_domain.clock           6672                       # Clock period in ticks
system.cpu.itb_walker_cache.pwrStateResidencyTicks::UNDEFINED 1050122279616                       # Cumulative time (in ticks) in various power states
system.cpu.itb_walker_cache.blocked_cycles::no_mshrs            0                       # number of cycles access was blocked
system.cpu.itb_walker_cache.blocked_cycles::no_targets            0                       # number of cycles access was blocked
system.cpu.itb_walker_cache.blocked::no_mshrs            0                       # number of cycles access was blocked
system.cpu.itb_walker_cache.blocked::no_targets            0                       # number of cycles access was blocked
system.cpu.itb_walker_cache.avg_blocked_cycles::no_mshrs          nan                       # average number of cycles each access was blocked
system.cpu.itb_walker_cache.avg_blocked_cycles::no_targets          nan                       # average number of cycles each access was blocked
system.cpu.itb_walker_cache.replacements            0                       # number of replacements
system.cpu.itb_walker_cache.tags.pwrStateResidencyTicks::UNDEFINED 1050122279616                       # Cumulative time (in ticks) in various power states
system.cpu.itb_walker_cache.tags.tagsinuse            0                       # Cycle average of tags in use
system.cpu.itb_walker_cache.tags.total_refs            0                       # Total number of references to valid blocks.
system.cpu.itb_walker_cache.tags.sampled_refs            0                       # Sample count of references to valid blocks.
system.cpu.itb_walker_cache.tags.avg_refs          nan                       # Average number of references to valid blocks.
system.cpu.itb_walker_cache.tags.warmup_cycle            0                       # Cycle when the warmup percentage was hit.
system.cpu.itb_walker_cache.tags.tag_accesses            0                       # Number of tag accesses
system.cpu.itb_walker_cache.tags.data_accesses            0                       # Number of data accesses
system.cpu.itb.walker.pwrStateResidencyTicks::UNDEFINED 1050122279616                       # Cumulative time (in ticks) in various power states
system.cpu.dtb_walker_cache.pwrStateResidencyTicks::UNDEFINED 1050122279616                       # Cumulative time (in ticks) in various power states
system.cpu.dtb_walker_cache.blocked_cycles::no_mshrs            0                       # number of cycles access was blocked
system.cpu.dtb_walker_cache.blocked_cycles::no_targets            0                       # number of cycles access was blocked
system.cpu.dtb_walker_cache.blocked::no_mshrs            0                       # number of cycles access was blocked
system.cpu.dtb_walker_cache.blocked::no_targets            0                       # number of cycles access was blocked
system.cpu.dtb_walker_cache.avg_blocked_cycles::no_mshrs          nan                       # average number of cycles each access was blocked
system.cpu.dtb_walker_cache.avg_blocked_cycles::no_targets          nan                       # average number of cycles each access was blocked
system.cpu.dtb_walker_cache.replacements            0                       # number of replacements
system.cpu.dtb_walker_cache.tags.pwrStateResidencyTicks::UNDEFINED 1050122279616                       # Cumulative time (in ticks) in various power states
system.cpu.dtb_walker_cache.tags.tagsinuse            0                       # Cycle average of tags in use
system.cpu.dtb_walker_cache.tags.total_refs            0                       # Total number of references to valid blocks.
system.cpu.dtb_walker_cache.tags.sampled_refs            0                       # Sample count of references to valid blocks.
system.cpu.dtb_walker_cache.tags.avg_refs          nan                       # Average number of references to valid blocks.
system.cpu.dtb_walker_cache.tags.warmup_cycle            0                       # Cycle when the warmup percentage was hit.
system.cpu.dtb_walker_cache.tags.tag_accesses            0                       # Number of tag accesses
system.cpu.dtb_walker_cache.tags.data_accesses            0                       # Number of data accesses
system.cpu.dcache.pwrStateResidencyTicks::UNDEFINED 1050122279616                       # Cumulative time (in ticks) in various power states
system.cpu.dcache.demand_hits::.cpu.data    529186131                       # number of demand (read+write) hits
system.cpu.dcache.demand_hits::total        529186131                       # number of demand (read+write) hits
system.cpu.dcache.overall_hits::.cpu.data    529186131                       # number of overall hits
system.cpu.dcache.overall_hits::total       529186131                       # number of overall hits
system.cpu.dcache.demand_misses::.cpu.data      3874732                       # number of demand (read+write) misses
system.cpu.dcache.demand_misses::total        3874732                       # number of demand (read+write) misses
system.cpu.dcache.overall_misses::.cpu.data      3874732                       # number of overall misses
system.cpu.dcache.overall_misses::total       3874732                       # number of overall misses
system.cpu.dcache.demand_accesses::.cpu.data    533060863                       # number of demand (read+write) accesses
system.cpu.dcache.demand_accesses::total    533060863                       # number of demand (read+write) accesses
system.cpu.dcache.overall_accesses::.cpu.data    533060863                       # number of overall (read+write) accesses
system.cpu.dcache.overall_accesses::total    533060863                       # number of overall (read+write) accesses
system.cpu.dcache.demand_miss_rate::.cpu.data     0.007269                       # miss rate for demand accesses
system.cpu.dcache.demand_miss_rate::total     0.007269                       # miss rate for demand accesses
system.cpu.dcache.overall_miss_rate::.cpu.data     0.007269                       # miss rate for overall accesses
system.cpu.dcache.overall_miss_rate::total     0.007269                       # miss rate for overall accesses
system.cpu.dcache.blocked_cycles::no_mshrs            0                       # number of cycles access was blocked
system.cpu.dcache.blocked_cycles::no_targets            0                       # number of cycles access was blocked
system.cpu.dcache.blocked::no_mshrs                 0                       # number of cycles access was blocked
system.cpu.dcache.blocked::no_targets               0                       # number of cycles access was blocked
system.cpu.dcache.avg_blocked_cycles::no_mshrs          nan                       # average number of cycles each access was blocked
system.cpu.dcache.avg_blocked_cycles::no_targets          nan                       # average number of cycles each access was blocked
system.cpu.dcache.writebacks::.writebacks      2337631                       # number of writebacks
system.cpu.dcache.writebacks::total           2337631                       # number of writebacks
system.cpu.dcache.replacements                3874220                       # number of replacements
system.cpu.dcache.ReadReq_hits::.cpu.data    338379890                       # number of ReadReq hits
system.cpu.dcache.ReadReq_hits::total       338379890                       # number of ReadReq hits
system.cpu.dcache.ReadReq_misses::.cpu.data      3419636                       # number of ReadReq misses
system.cpu.dcache.ReadReq_misses::total       3419636                       # number of ReadReq misses
system.cpu.dcache.ReadReq_accesses::.cpu.data    341799526                       # number of ReadReq accesses(hits+misses)
system.cpu.dcache.ReadReq_accesses::total    341799526                       # number of ReadReq accesses(hits+misses)
system.cpu.dcache.ReadReq_miss_rate::.cpu.data     0.010005                       # miss rate for ReadReq accesses
system.cpu.dcache.ReadReq_miss_rate::total     0.010005                       # miss rate for ReadReq accesses
system.cpu.dcache.WriteReq_hits::.cpu.data    190806241                       # number of WriteReq hits
system.cpu.dcache.WriteReq_hits::total      190806241                       # number of WriteReq hits
system.cpu.dcache.WriteReq_misses::.cpu.data       455096                       # number of WriteReq misses
system.cpu.dcache.WriteReq_misses::total       455096                       # number of WriteReq misses
system.cpu.dcache.WriteReq_accesses::.cpu.data    191261337                       # number of WriteReq accesses(hits+misses)
system.cpu.dcache.WriteReq_accesses::total    191261337                       # number of WriteReq accesses(hits+misses)
system.cpu.dcache.WriteReq_miss_rate::.cpu.data     0.002379                       # miss rate for WriteReq accesses
system.cpu.dcache.WriteReq_miss_rate::total     0.002379                       # miss rate for WriteReq accesses
system.cpu.dcache.tags.pwrStateResidencyTicks::UNDEFINED 1050122279616                       # Cumulative time (in ticks) in various power states
system.cpu.dcache.tags.tagsinuse           511.988655                       # Cycle average of tags in use
system.cpu.dcache.tags.total_refs           533060863                       # Total number of references to valid blocks.
system.cpu.dcache.tags.sampled_refs           3874732                       # Sample count of references to valid blocks.
system.cpu.dcache.tags.avg_refs            137.573608                       # Average number of references to valid blocks.
system.cpu.dcache.tags.warmup_cycle              1251                       # Cycle when the warmup percentage was hit.
system.cpu.dcache.tags.occ_blocks::.cpu.data   511.988655                       # Average occupied blocks per requestor
system.cpu.dcache.tags.occ_percent::.cpu.data     0.999978                       # Average percentage of cache occupancy
system.cpu.dcache.tags.occ_percent::total     0.999978                       # Average percentage of cache occupancy
system.cpu.dcache.tags.occ_task_id_blocks::1024          512                       # Occupied blocks per task id
system.cpu.dcache.tags.age_task_id_blocks_1024::0          281                       # Occupied blocks per task id
system.cpu.dcache.tags.age_task_id_blocks_1024::1          226                       # Occupied blocks per task id
system.cpu.dcache.tags.age_task_id_blocks_1024::2            5                       # Occupied blocks per task id
system.cpu.dcache.tags.occ_task_id_percent::1024            1                       # Percentage of cache occupancy per task id
system.cpu.dcache.tags.tag_accesses        1069996458                       # Number of tag accesses
system.cpu.dcache.tags.data_accesses       1069996458                       # Number of data accesses

---------- End Simulation Statistics   ----------
