
---------- Begin Simulation Statistics ----------
final_tick                               60998436252042                       # Number of ticks from beginning of simulation (restored from checkpoints and never reset)
host_inst_rate                                1204065                       # Simulator instruction rate (inst/s)
host_mem_usage                                2483636                       # Number of bytes of host memory used
host_op_rate                                  2412099                       # Simulator op (including micro ops) rate (op/s)
host_seconds                                 52394.27                       # Real time elapsed on the host
host_tick_rate                             1164219696                       # Simulator tick rate (ticks/s)
sim_freq                                 1000000000000                       # Frequency of simulated ticks
sim_insts                                 63086075526                       # Number of instructions simulated
sim_ops                                  126380173270                       # Number of ops (including micro ops) simulated
sim_seconds                                 60.998436                       # Number of seconds simulated
sim_ticks                                60998436252042                       # Number of ticks simulated
system.cpu.Branches                       14168039765                       # Number of branches fetched
system.cpu.committedInsts                 63086075526                       # Number of instructions committed
system.cpu.committedOps                  126380173270                       # Number of ops (including micro ops) committed
system.cpu.dtb.rdAccesses                 19741806299                       # TLB accesses on read requests
system.cpu.dtb.rdMisses                      30403574                       # TLB misses on read requests
system.cpu.dtb.wrAccesses                 11167933709                       # TLB accesses on write requests
system.cpu.dtb.wrMisses                       2983616                       # TLB misses on write requests
system.cpu.idle_fraction                     0.000000                       # Percentage of idle cycles
system.cpu.itb.rdAccesses                           0                       # TLB accesses on read requests
system.cpu.itb.rdMisses                             0                       # TLB misses on read requests
system.cpu.itb.wrAccesses                 83539511089                       # TLB accesses on write requests
system.cpu.itb.wrMisses                           455                       # TLB misses on write requests
system.cpu.not_idle_fraction                 1.000000                       # Percentage of non-idle cycles
system.cpu.numCycles                     146833608833                       # number of cpu cycles simulated
system.cpu.numWorkItemsCompleted                    0                       # number of work items this cpu completed
system.cpu.numWorkItemsStarted                      0                       # number of work items this cpu started
system.cpu.num_busy_cycles               146833608832.997589                       # Number of busy cycles
system.cpu.num_cc_register_reads          62158940130                       # number of times the CC registers were read
system.cpu.num_cc_register_writes         34944420758                       # number of times the CC registers were written
system.cpu.num_conditional_control_insts   8917475921                       # number of instructions that are conditional controls
system.cpu.num_fp_alu_accesses             1527134396                       # Number of float alu accesses
system.cpu.num_fp_insts                    1527134396                       # number of float instructions
system.cpu.num_fp_register_reads           2714556805                       # number of times the floating registers were read
system.cpu.num_fp_register_writes          1381718553                       # number of times the floating registers were written
system.cpu.num_func_calls                  3213129066                       # number of times a function call or return occured
system.cpu.num_idle_cycles                   0.002413                       # Number of idle cycles
system.cpu.num_int_alu_accesses          124107419909                       # Number of integer alu accesses
system.cpu.num_int_insts                 124107419909                       # number of integer instructions
system.cpu.num_int_register_reads        253191421182                       # number of times the integer registers were read
system.cpu.num_int_register_writes       100712617436                       # number of times the integer registers were written
system.cpu.num_load_insts                 19739618150                       # Number of load instructions
system.cpu.num_mem_refs                   30907439171                       # number of memory refs
system.cpu.num_store_insts                11167821021                       # Number of store instructions
system.cpu.num_vec_alu_accesses                     0                       # Number of vector alu accesses
system.cpu.num_vec_insts                            0                       # number of vector instructions
system.cpu.num_vec_register_reads                   0                       # number of times the vector registers were read
system.cpu.num_vec_register_writes                  0                       # number of times the vector registers were written
system.cpu.op_class::No_OpClass             583033190      0.46%      0.46% # Class of executed instruction
system.cpu.op_class::IntAlu               92759304998     73.40%     73.86% # Class of executed instruction
system.cpu.op_class::IntMult                173859216      0.14%     74.00% # Class of executed instruction
system.cpu.op_class::IntDiv                 866007992      0.69%     74.68% # Class of executed instruction
system.cpu.op_class::FloatAdd                18208804      0.01%     74.70% # Class of executed instruction
system.cpu.op_class::FloatCmp                       0      0.00%     74.70% # Class of executed instruction
system.cpu.op_class::FloatCvt                    3024      0.00%     74.70% # Class of executed instruction
system.cpu.op_class::FloatMult                      0      0.00%     74.70% # Class of executed instruction
system.cpu.op_class::FloatMultAcc                   0      0.00%     74.70% # Class of executed instruction
system.cpu.op_class::FloatDiv                       0      0.00%     74.70% # Class of executed instruction
system.cpu.op_class::FloatMisc                      0      0.00%     74.70% # Class of executed instruction
system.cpu.op_class::FloatSqrt                      0      0.00%     74.70% # Class of executed instruction
system.cpu.op_class::SimdAdd                145148958      0.11%     74.81% # Class of executed instruction
system.cpu.op_class::SimdAddAcc                     0      0.00%     74.81% # Class of executed instruction
system.cpu.op_class::SimdAlu                222704485      0.18%     74.99% # Class of executed instruction
system.cpu.op_class::SimdCmp                      120      0.00%     74.99% # Class of executed instruction
system.cpu.op_class::SimdCvt                279096980      0.22%     75.21% # Class of executed instruction
system.cpu.op_class::SimdMisc               276926240      0.22%     75.43% # Class of executed instruction
system.cpu.op_class::SimdMult                       0      0.00%     75.43% # Class of executed instruction
system.cpu.op_class::SimdMultAcc                    0      0.00%     75.43% # Class of executed instruction
system.cpu.op_class::SimdShift              148430379      0.12%     75.54% # Class of executed instruction
system.cpu.op_class::SimdShiftAcc                   0      0.00%     75.54% # Class of executed instruction
system.cpu.op_class::SimdDiv                        0      0.00%     75.54% # Class of executed instruction
system.cpu.op_class::SimdSqrt                       0      0.00%     75.54% # Class of executed instruction
system.cpu.op_class::SimdFloatAdd                   1      0.00%     75.54% # Class of executed instruction
system.cpu.op_class::SimdFloatAlu                   0      0.00%     75.54% # Class of executed instruction
system.cpu.op_class::SimdFloatCmp                   0      0.00%     75.54% # Class of executed instruction
system.cpu.op_class::SimdFloatCvt                4856      0.00%     75.54% # Class of executed instruction
system.cpu.op_class::SimdFloatDiv                4856      0.00%     75.54% # Class of executed instruction
system.cpu.op_class::SimdFloatMisc                  0      0.00%     75.54% # Class of executed instruction
system.cpu.op_class::SimdFloatMult                  0      0.00%     75.54% # Class of executed instruction
system.cpu.op_class::SimdFloatMultAcc               0      0.00%     75.54% # Class of executed instruction
system.cpu.op_class::SimdFloatSqrt                  0      0.00%     75.54% # Class of executed instruction
system.cpu.op_class::SimdReduceAdd                  0      0.00%     75.54% # Class of executed instruction
system.cpu.op_class::SimdReduceAlu                  0      0.00%     75.54% # Class of executed instruction
system.cpu.op_class::SimdReduceCmp                  0      0.00%     75.54% # Class of executed instruction
system.cpu.op_class::SimdFloatReduceAdd             0      0.00%     75.54% # Class of executed instruction
system.cpu.op_class::SimdFloatReduceCmp             0      0.00%     75.54% # Class of executed instruction
system.cpu.op_class::SimdAes                        0      0.00%     75.54% # Class of executed instruction
system.cpu.op_class::SimdAesMix                     0      0.00%     75.54% # Class of executed instruction
system.cpu.op_class::SimdSha1Hash                   0      0.00%     75.54% # Class of executed instruction
system.cpu.op_class::SimdSha1Hash2                  0      0.00%     75.54% # Class of executed instruction
system.cpu.op_class::SimdSha256Hash                 0      0.00%     75.54% # Class of executed instruction
system.cpu.op_class::SimdSha256Hash2                0      0.00%     75.54% # Class of executed instruction
system.cpu.op_class::SimdShaSigma2                  0      0.00%     75.54% # Class of executed instruction
system.cpu.op_class::SimdShaSigma3                  0      0.00%     75.54% # Class of executed instruction
system.cpu.op_class::SimdPredAlu                    0      0.00%     75.54% # Class of executed instruction
system.cpu.op_class::MemRead              19454760145     15.39%     90.94% # Class of executed instruction
system.cpu.op_class::MemWrite             11154725275      8.83%     99.76% # Class of executed instruction
system.cpu.op_class::FloatMemRead           284858005      0.23%     99.99% # Class of executed instruction
system.cpu.op_class::FloatMemWrite           13095746      0.01%    100.00% # Class of executed instruction
system.cpu.op_class::IprAccess                      0      0.00%    100.00% # Class of executed instruction
system.cpu.op_class::InstPrefetch                   0      0.00%    100.00% # Class of executed instruction
system.cpu.op_class::total               126380173270                       # Class of executed instruction
system.cpu.workload.numSyscalls                 48714                       # Number of system calls
system.membus.snoop_filter.hit_multi_requests            0                       # Number of requests hitting in the snoop filter with multiple (>1) holders of the requested data.
system.membus.snoop_filter.hit_multi_snoops            0                       # Number of snoops hitting in the snoop filter with multiple (>1) holders of the requested data.
system.membus.snoop_filter.hit_single_requests    103084547                       # Number of requests hitting in the snoop filter with a single holder of the requested data.
system.membus.snoop_filter.hit_single_snoops            0                       # Number of snoops hitting in the snoop filter with a single holder of the requested data.
system.membus.snoop_filter.tot_requests     206202161                       # Total number of requests made to the snoop filter.
system.membus.snoop_filter.tot_snoops               0                       # Total number of snoops made to the snoop filter.
system.tol2bus.snoop_filter.hit_multi_requests            0                       # Number of requests hitting in the snoop filter with multiple (>1) holders of the requested data.
system.tol2bus.snoop_filter.hit_multi_snoops            0                       # Number of snoops hitting in the snoop filter with multiple (>1) holders of the requested data.
system.tol2bus.snoop_filter.hit_single_requests    516443391                       # Number of requests hitting in the snoop filter with a single holder of the requested data.
system.tol2bus.snoop_filter.hit_single_snoops        10404                       # Number of snoops hitting in the snoop filter with a single holder of the requested data.
system.tol2bus.snoop_filter.tot_requests   1032887806                       # Total number of requests made to the snoop filter.
system.tol2bus.snoop_filter.tot_snoops          10404                       # Total number of snoops made to the snoop filter.
system.membus.pwrStateResidencyTicks::UNDEFINED 60998436252042                       # Cumulative time (in ticks) in various power states
system.membus.trans_dist::ReadResp           70720336                       # Transaction distribution
system.membus.trans_dist::WritebackDirty     46862402                       # Transaction distribution
system.membus.trans_dist::CleanEvict         56222145                       # Transaction distribution
system.membus.trans_dist::ReadExReq          32397278                       # Transaction distribution
system.membus.trans_dist::ReadExResp         32397278                       # Transaction distribution
system.membus.trans_dist::ReadSharedReq      70720336                       # Transaction distribution
system.membus.pkt_count_system.l2.mem_side::system.mem_ctrls.port    309319775                       # Packet count per connected master and slave (bytes)
system.membus.pkt_count_system.l2.mem_side::total    309319775                       # Packet count per connected master and slave (bytes)
system.membus.pkt_count::total              309319775                       # Packet count per connected master and slave (bytes)
system.membus.pkt_size_system.l2.mem_side::system.mem_ctrls.port   9598721024                       # Cumulative packet size per connected master and slave (bytes)
system.membus.pkt_size_system.l2.mem_side::total   9598721024                       # Cumulative packet size per connected master and slave (bytes)
system.membus.pkt_size::total              9598721024                       # Cumulative packet size per connected master and slave (bytes)
system.membus.snoops                                0                       # Total snoops (count)
system.membus.snoopTraffic                          0                       # Total snoop traffic (bytes)
system.membus.snoop_fanout::samples         103117614                       # Request fanout histogram
system.membus.snoop_fanout::mean                    0                       # Request fanout histogram
system.membus.snoop_fanout::stdev                   0                       # Request fanout histogram
system.membus.snoop_fanout::underflows              0      0.00%      0.00% # Request fanout histogram
system.membus.snoop_fanout::0               103117614    100.00%    100.00% # Request fanout histogram
system.membus.snoop_fanout::1                       0      0.00%    100.00% # Request fanout histogram
system.membus.snoop_fanout::overflows               0      0.00%    100.00% # Request fanout histogram
system.membus.snoop_fanout::min_value               0                       # Request fanout histogram
system.membus.snoop_fanout::max_value               0                       # Request fanout histogram
system.membus.snoop_fanout::total           103117614                       # Request fanout histogram
system.tol2bus.pwrStateResidencyTicks::UNDEFINED 60998436252042                       # Cumulative time (in ticks) in various power states
system.tol2bus.trans_dist::ReadResp         480874085                       # Transaction distribution
system.tol2bus.trans_dist::WritebackDirty     64298020                       # Transaction distribution
system.tol2bus.trans_dist::WritebackClean    322646078                       # Transaction distribution
system.tol2bus.trans_dist::CleanEvict       129499293                       # Transaction distribution
system.tol2bus.trans_dist::ReadExReq         35570330                       # Transaction distribution
system.tol2bus.trans_dist::ReadExResp        35570330                       # Transaction distribution
system.tol2bus.trans_dist::ReadCleanReq     322646590                       # Transaction distribution
system.tol2bus.trans_dist::ReadSharedReq    158227495                       # Transaction distribution
system.tol2bus.pkt_count_system.cpu.icache.mem_side::system.l2.cpu_side    967939258                       # Packet count per connected master and slave (bytes)
system.tol2bus.pkt_count_system.cpu.dcache.mem_side::system.l2.cpu_side    581392963                       # Packet count per connected master and slave (bytes)
system.tol2bus.pkt_count::total            1549332221                       # Packet count per connected master and slave (bytes)
system.tol2bus.pkt_size_system.cpu.icache.mem_side::system.l2.cpu_side  41298730752                       # Cumulative packet size per connected master and slave (bytes)
system.tol2bus.pkt_size_system.cpu.dcache.mem_side::system.l2.cpu_side  16518134080                       # Cumulative packet size per connected master and slave (bytes)
system.tol2bus.pkt_size::total            57816864832                       # Cumulative packet size per connected master and slave (bytes)
system.tol2bus.snoops                       103092059                       # Total snoops (count)
system.tol2bus.snoopTraffic                2999193728                       # Total snoop traffic (bytes)
system.tol2bus.snoop_fanout::samples        619536474                       # Request fanout histogram
system.tol2bus.snoop_fanout::mean            0.000017                       # Request fanout histogram
system.tol2bus.snoop_fanout::stdev           0.004098                       # Request fanout histogram
system.tol2bus.snoop_fanout::underflows             0      0.00%      0.00% # Request fanout histogram
system.tol2bus.snoop_fanout::0              619526070    100.00%    100.00% # Request fanout histogram
system.tol2bus.snoop_fanout::1                  10404      0.00%    100.00% # Request fanout histogram
system.tol2bus.snoop_fanout::2                      0      0.00%    100.00% # Request fanout histogram
system.tol2bus.snoop_fanout::3                      0      0.00%    100.00% # Request fanout histogram
system.tol2bus.snoop_fanout::4                      0      0.00%    100.00% # Request fanout histogram
system.tol2bus.snoop_fanout::overflows              0      0.00%    100.00% # Request fanout histogram
system.tol2bus.snoop_fanout::min_value              0                       # Request fanout histogram
system.tol2bus.snoop_fanout::max_value              1                       # Request fanout histogram
system.tol2bus.snoop_fanout::total          619536474                       # Request fanout histogram
system.voltage_domain.voltage                       1                       # Voltage in Volts
system.clk_domain.clock                          1000                       # Clock period in ticks
system.l2.pwrStateResidencyTicks::UNDEFINED 60998436252042                       # Cumulative time (in ticks) in various power states
system.l2.demand_hits::.cpu.inst            322639765                       # number of demand (read+write) hits
system.l2.demand_hits::.cpu.data             90687036                       # number of demand (read+write) hits
system.l2.demand_hits::total                413326801                       # number of demand (read+write) hits
system.l2.overall_hits::.cpu.inst           322639765                       # number of overall hits
system.l2.overall_hits::.cpu.data            90687036                       # number of overall hits
system.l2.overall_hits::total               413326801                       # number of overall hits
system.l2.demand_misses::.cpu.inst               6825                       # number of demand (read+write) misses
system.l2.demand_misses::.cpu.data          103110789                       # number of demand (read+write) misses
system.l2.demand_misses::total              103117614                       # number of demand (read+write) misses
system.l2.overall_misses::.cpu.inst              6825                       # number of overall misses
system.l2.overall_misses::.cpu.data         103110789                       # number of overall misses
system.l2.overall_misses::total             103117614                       # number of overall misses
system.l2.demand_accesses::.cpu.inst        322646590                       # number of demand (read+write) accesses
system.l2.demand_accesses::.cpu.data        193797825                       # number of demand (read+write) accesses
system.l2.demand_accesses::total            516444415                       # number of demand (read+write) accesses
system.l2.overall_accesses::.cpu.inst       322646590                       # number of overall (read+write) accesses
system.l2.overall_accesses::.cpu.data       193797825                       # number of overall (read+write) accesses
system.l2.overall_accesses::total           516444415                       # number of overall (read+write) accesses
system.l2.demand_miss_rate::.cpu.inst        0.000021                       # miss rate for demand accesses
system.l2.demand_miss_rate::.cpu.data        0.532053                       # miss rate for demand accesses
system.l2.demand_miss_rate::total            0.199668                       # miss rate for demand accesses
system.l2.overall_miss_rate::.cpu.inst       0.000021                       # miss rate for overall accesses
system.l2.overall_miss_rate::.cpu.data       0.532053                       # miss rate for overall accesses
system.l2.overall_miss_rate::total           0.199668                       # miss rate for overall accesses
system.l2.blocked_cycles::no_mshrs                  0                       # number of cycles access was blocked
system.l2.blocked_cycles::no_targets                0                       # number of cycles access was blocked
system.l2.blocked::no_mshrs                         0                       # number of cycles access was blocked
system.l2.blocked::no_targets                       0                       # number of cycles access was blocked
system.l2.avg_blocked_cycles::no_mshrs            nan                       # average number of cycles each access was blocked
system.l2.avg_blocked_cycles::no_targets          nan                       # average number of cycles each access was blocked
system.l2.writebacks::.writebacks            46862402                       # number of writebacks
system.l2.writebacks::total                  46862402                       # number of writebacks
system.l2.replacements                      103092059                       # number of replacements
system.l2.WritebackDirty_hits::.writebacks     64298020                       # number of WritebackDirty hits
system.l2.WritebackDirty_hits::total         64298020                       # number of WritebackDirty hits
system.l2.WritebackDirty_accesses::.writebacks     64298020                       # number of WritebackDirty accesses(hits+misses)
system.l2.WritebackDirty_accesses::total     64298020                       # number of WritebackDirty accesses(hits+misses)
system.l2.WritebackClean_hits::.writebacks    322646078                       # number of WritebackClean hits
system.l2.WritebackClean_hits::total        322646078                       # number of WritebackClean hits
system.l2.WritebackClean_accesses::.writebacks    322646078                       # number of WritebackClean accesses(hits+misses)
system.l2.WritebackClean_accesses::total    322646078                       # number of WritebackClean accesses(hits+misses)
system.l2.ReadExReq_hits::.cpu.data           3173052                       # number of ReadExReq hits
system.l2.ReadExReq_hits::total               3173052                       # number of ReadExReq hits
system.l2.ReadExReq_misses::.cpu.data        32397278                       # number of ReadExReq misses
system.l2.ReadExReq_misses::total            32397278                       # number of ReadExReq misses
system.l2.ReadExReq_accesses::.cpu.data      35570330                       # number of ReadExReq accesses(hits+misses)
system.l2.ReadExReq_accesses::total          35570330                       # number of ReadExReq accesses(hits+misses)
system.l2.ReadExReq_miss_rate::.cpu.data     0.910795                       # miss rate for ReadExReq accesses
system.l2.ReadExReq_miss_rate::total         0.910795                       # miss rate for ReadExReq accesses
system.l2.ReadCleanReq_hits::.cpu.inst      322639765                       # number of ReadCleanReq hits
system.l2.ReadCleanReq_hits::total          322639765                       # number of ReadCleanReq hits
system.l2.ReadCleanReq_misses::.cpu.inst         6825                       # number of ReadCleanReq misses
system.l2.ReadCleanReq_misses::total             6825                       # number of ReadCleanReq misses
system.l2.ReadCleanReq_accesses::.cpu.inst    322646590                       # number of ReadCleanReq accesses(hits+misses)
system.l2.ReadCleanReq_accesses::total      322646590                       # number of ReadCleanReq accesses(hits+misses)
system.l2.ReadCleanReq_miss_rate::.cpu.inst     0.000021                       # miss rate for ReadCleanReq accesses
system.l2.ReadCleanReq_miss_rate::total      0.000021                       # miss rate for ReadCleanReq accesses
system.l2.ReadSharedReq_hits::.cpu.data      87513984                       # number of ReadSharedReq hits
system.l2.ReadSharedReq_hits::total          87513984                       # number of ReadSharedReq hits
system.l2.ReadSharedReq_misses::.cpu.data     70713511                       # number of ReadSharedReq misses
system.l2.ReadSharedReq_misses::total        70713511                       # number of ReadSharedReq misses
system.l2.ReadSharedReq_accesses::.cpu.data    158227495                       # number of ReadSharedReq accesses(hits+misses)
system.l2.ReadSharedReq_accesses::total     158227495                       # number of ReadSharedReq accesses(hits+misses)
system.l2.ReadSharedReq_miss_rate::.cpu.data     0.446910                       # miss rate for ReadSharedReq accesses
system.l2.ReadSharedReq_miss_rate::total     0.446910                       # miss rate for ReadSharedReq accesses
system.l2.tags.pwrStateResidencyTicks::UNDEFINED 60998436252042                       # Cumulative time (in ticks) in various power states
system.l2.tags.tagsinuse                 32738.558328                       # Cycle average of tags in use
system.l2.tags.total_refs                  1032884914                       # Total number of references to valid blocks.
system.l2.tags.sampled_refs                 103124827                       # Sample count of references to valid blocks.
system.l2.tags.avg_refs                     10.015871                       # Average number of references to valid blocks.
system.l2.tags.warmup_cycle                         0                       # Cycle when the warmup percentage was hit.
system.l2.tags.occ_blocks::.writebacks      29.029562                       # Average occupied blocks per requestor
system.l2.tags.occ_blocks::.cpu.inst        25.105770                       # Average occupied blocks per requestor
system.l2.tags.occ_blocks::.cpu.data     32684.422997                       # Average occupied blocks per requestor
system.l2.tags.occ_percent::.writebacks      0.000886                       # Average percentage of cache occupancy
system.l2.tags.occ_percent::.cpu.inst        0.000766                       # Average percentage of cache occupancy
system.l2.tags.occ_percent::.cpu.data        0.997449                       # Average percentage of cache occupancy
system.l2.tags.occ_percent::total            0.999102                       # Average percentage of cache occupancy
system.l2.tags.occ_task_id_blocks::1024         32768                       # Occupied blocks per task id
system.l2.tags.age_task_id_blocks_1024::0          603                       # Occupied blocks per task id
system.l2.tags.age_task_id_blocks_1024::1         1252                       # Occupied blocks per task id
system.l2.tags.age_task_id_blocks_1024::2        10376                       # Occupied blocks per task id
system.l2.tags.age_task_id_blocks_1024::3        20537                       # Occupied blocks per task id
system.l2.tags.occ_task_id_percent::1024            1                       # Percentage of cache occupancy per task id
system.l2.tags.tag_accesses                8366227275                       # Number of tag accesses
system.l2.tags.data_accesses               8366227275                       # Number of data accesses
system.cpu_voltage_domain.voltage                   1                       # Voltage in Volts
system.mem_ctrls.pwrStateResidencyTicks::UNDEFINED 60998436252042                       # Cumulative time (in ticks) in various power states
system.mem_ctrls.bytes_read::.cpu.inst         436800                       # Number of bytes read from this memory
system.mem_ctrls.bytes_read::.cpu.data     6599090496                       # Number of bytes read from this memory
system.mem_ctrls.bytes_read::total         6599527296                       # Number of bytes read from this memory
system.mem_ctrls.bytes_inst_read::.cpu.inst       436800                       # Number of instructions bytes read from this memory
system.mem_ctrls.bytes_inst_read::total        436800                       # Number of instructions bytes read from this memory
system.mem_ctrls.bytes_written::.writebacks   2999193728                       # Number of bytes written to this memory
system.mem_ctrls.bytes_written::total      2999193728                       # Number of bytes written to this memory
system.mem_ctrls.num_reads::.cpu.inst            6825                       # Number of read requests responded to by this memory
system.mem_ctrls.num_reads::.cpu.data       103110789                       # Number of read requests responded to by this memory
system.mem_ctrls.num_reads::total           103117614                       # Number of read requests responded to by this memory
system.mem_ctrls.num_writes::.writebacks     46862402                       # Number of write requests responded to by this memory
system.mem_ctrls.num_writes::total           46862402                       # Number of write requests responded to by this memory
system.mem_ctrls.bw_read::.cpu.inst              7161                       # Total read bandwidth from this memory (bytes/s)
system.mem_ctrls.bw_read::.cpu.data         108184585                       # Total read bandwidth from this memory (bytes/s)
system.mem_ctrls.bw_read::total             108191746                       # Total read bandwidth from this memory (bytes/s)
system.mem_ctrls.bw_inst_read::.cpu.inst         7161                       # Instruction read bandwidth from this memory (bytes/s)
system.mem_ctrls.bw_inst_read::total             7161                       # Instruction read bandwidth from this memory (bytes/s)
system.mem_ctrls.bw_write::.writebacks       49168371                       # Write bandwidth from this memory (bytes/s)
system.mem_ctrls.bw_write::total             49168371                       # Write bandwidth from this memory (bytes/s)
system.mem_ctrls.bw_total::.writebacks       49168371                       # Total bandwidth to/from this memory (bytes/s)
system.mem_ctrls.bw_total::.cpu.inst             7161                       # Total bandwidth to/from this memory (bytes/s)
system.mem_ctrls.bw_total::.cpu.data        108184585                       # Total bandwidth to/from this memory (bytes/s)
system.mem_ctrls.bw_total::total            157360116                       # Total bandwidth to/from this memory (bytes/s)
system.mem_ctrls.priorityMinLatency      0.000000000000                       # per QoS priority minimum request to response latency (s)
system.mem_ctrls.priorityMaxLatency      0.000000000000                       # per QoS priority maximum request to response latency (s)
system.mem_ctrls.numReadWriteTurnArounds            0                       # Number of turnarounds from READ to WRITE
system.mem_ctrls.numWriteReadTurnArounds            0                       # Number of turnarounds from WRITE to READ
system.mem_ctrls.numStayReadState                   0                       # Number of times bus staying in READ state
system.mem_ctrls.numStayWriteState                  0                       # Number of times bus staying in WRITE state
system.mem_ctrls.readReqs                           0                       # Number of read requests accepted
system.mem_ctrls.writeReqs                          0                       # Number of write requests accepted
system.mem_ctrls.readBursts                         0                       # Number of DRAM read bursts, including those serviced by the write queue
system.mem_ctrls.writeBursts                        0                       # Number of DRAM write bursts, including those merged in the write queue
system.mem_ctrls.servicedByWrQ                      0                       # Number of DRAM read bursts serviced by the write queue
system.mem_ctrls.mergedWrBursts                     0                       # Number of DRAM write bursts merged with an existing one
system.mem_ctrls.neitherReadNorWriteReqs            0                       # Number of requests that are neither read nor write
system.mem_ctrls.perBankRdBursts::0                 0                       # Per bank write bursts
system.mem_ctrls.perBankRdBursts::1                 0                       # Per bank write bursts
system.mem_ctrls.perBankRdBursts::2                 0                       # Per bank write bursts
system.mem_ctrls.perBankRdBursts::3                 0                       # Per bank write bursts
system.mem_ctrls.perBankRdBursts::4                 0                       # Per bank write bursts
system.mem_ctrls.perBankRdBursts::5                 0                       # Per bank write bursts
system.mem_ctrls.perBankRdBursts::6                 0                       # Per bank write bursts
system.mem_ctrls.perBankRdBursts::7                 0                       # Per bank write bursts
system.mem_ctrls.perBankRdBursts::8                 0                       # Per bank write bursts
system.mem_ctrls.perBankRdBursts::9                 0                       # Per bank write bursts
system.mem_ctrls.perBankRdBursts::10                0                       # Per bank write bursts
system.mem_ctrls.perBankRdBursts::11                0                       # Per bank write bursts
system.mem_ctrls.perBankRdBursts::12                0                       # Per bank write bursts
system.mem_ctrls.perBankRdBursts::13                0                       # Per bank write bursts
system.mem_ctrls.perBankRdBursts::14                0                       # Per bank write bursts
system.mem_ctrls.perBankRdBursts::15                0                       # Per bank write bursts
system.mem_ctrls.perBankWrBursts::0                 0                       # Per bank write bursts
system.mem_ctrls.perBankWrBursts::1                 0                       # Per bank write bursts
system.mem_ctrls.perBankWrBursts::2                 0                       # Per bank write bursts
system.mem_ctrls.perBankWrBursts::3                 0                       # Per bank write bursts
system.mem_ctrls.perBankWrBursts::4                 0                       # Per bank write bursts
system.mem_ctrls.perBankWrBursts::5                 0                       # Per bank write bursts
system.mem_ctrls.perBankWrBursts::6                 0                       # Per bank write bursts
system.mem_ctrls.perBankWrBursts::7                 0                       # Per bank write bursts
system.mem_ctrls.perBankWrBursts::8                 0                       # Per bank write bursts
system.mem_ctrls.perBankWrBursts::9                 0                       # Per bank write bursts
system.mem_ctrls.perBankWrBursts::10                0                       # Per bank write bursts
system.mem_ctrls.perBankWrBursts::11                0                       # Per bank write bursts
system.mem_ctrls.perBankWrBursts::12                0                       # Per bank write bursts
system.mem_ctrls.perBankWrBursts::13                0                       # Per bank write bursts
system.mem_ctrls.perBankWrBursts::14                0                       # Per bank write bursts
system.mem_ctrls.perBankWrBursts::15                0                       # Per bank write bursts
system.mem_ctrls.avgRdQLen                       0.00                       # Average read queue length when enqueuing
system.mem_ctrls.avgWrQLen                       0.00                       # Average write queue length when enqueuing
system.mem_ctrls.totQLat                            0                       # Total ticks spent queuing
system.mem_ctrls.totBusLat                          0                       # Total ticks spent in databus transfers
system.mem_ctrls.totMemAccLat                       0                       # Total ticks spent from burst creation until serviced by the DRAM
system.mem_ctrls.avgQLat                          nan                       # Average queueing delay per DRAM burst
system.mem_ctrls.avgBusLat                        nan                       # Average bus latency per DRAM burst
system.mem_ctrls.avgMemAccLat                     nan                       # Average memory access latency per DRAM burst
system.mem_ctrls.numRdRetry                         0                       # Number of times read queue was full causing retry
system.mem_ctrls.numWrRetry                         0                       # Number of times write queue was full causing retry
system.mem_ctrls.readRowHits                        0                       # Number of row buffer hits during reads
system.mem_ctrls.writeRowHits                       0                       # Number of row buffer hits during writes
system.mem_ctrls.readRowHitRate                   nan                       # Row buffer hit rate for reads
system.mem_ctrls.writeRowHitRate                  nan                       # Row buffer hit rate for writes
system.mem_ctrls.readPktSize::0                     0                       # Read request sizes (log2)
system.mem_ctrls.readPktSize::1                     0                       # Read request sizes (log2)
system.mem_ctrls.readPktSize::2                     0                       # Read request sizes (log2)
system.mem_ctrls.readPktSize::3                     0                       # Read request sizes (log2)
system.mem_ctrls.readPktSize::4                     0                       # Read request sizes (log2)
system.mem_ctrls.readPktSize::5                     0                       # Read request sizes (log2)
system.mem_ctrls.readPktSize::6                     0                       # Read request sizes (log2)
system.mem_ctrls.writePktSize::0                    0                       # Write request sizes (log2)
system.mem_ctrls.writePktSize::1                    0                       # Write request sizes (log2)
system.mem_ctrls.writePktSize::2                    0                       # Write request sizes (log2)
system.mem_ctrls.writePktSize::3                    0                       # Write request sizes (log2)
system.mem_ctrls.writePktSize::4                    0                       # Write request sizes (log2)
system.mem_ctrls.writePktSize::5                    0                       # Write request sizes (log2)
system.mem_ctrls.writePktSize::6                    0                       # Write request sizes (log2)
system.mem_ctrls.rdQLenPdf::0                       0                       # What read queue length does an incoming req see
system.mem_ctrls.rdQLenPdf::1                       0                       # What read queue length does an incoming req see
system.mem_ctrls.rdQLenPdf::2                       0                       # What read queue length does an incoming req see
system.mem_ctrls.rdQLenPdf::3                       0                       # What read queue length does an incoming req see
system.mem_ctrls.rdQLenPdf::4                       0                       # What read queue length does an incoming req see
system.mem_ctrls.rdQLenPdf::5                       0                       # What read queue length does an incoming req see
system.mem_ctrls.rdQLenPdf::6                       0                       # What read queue length does an incoming req see
system.mem_ctrls.rdQLenPdf::7                       0                       # What read queue length does an incoming req see
system.mem_ctrls.rdQLenPdf::8                       0                       # What read queue length does an incoming req see
system.mem_ctrls.rdQLenPdf::9                       0                       # What read queue length does an incoming req see
system.mem_ctrls.rdQLenPdf::10                      0                       # What read queue length does an incoming req see
system.mem_ctrls.rdQLenPdf::11                      0                       # What read queue length does an incoming req see
system.mem_ctrls.rdQLenPdf::12                      0                       # What read queue length does an incoming req see
system.mem_ctrls.rdQLenPdf::13                      0                       # What read queue length does an incoming req see
system.mem_ctrls.rdQLenPdf::14                      0                       # What read queue length does an incoming req see
system.mem_ctrls.rdQLenPdf::15                      0                       # What read queue length does an incoming req see
system.mem_ctrls.rdQLenPdf::16                      0                       # What read queue length does an incoming req see
system.mem_ctrls.rdQLenPdf::17                      0                       # What read queue length does an incoming req see
system.mem_ctrls.rdQLenPdf::18                      0                       # What read queue length does an incoming req see
system.mem_ctrls.rdQLenPdf::19                      0                       # What read queue length does an incoming req see
system.mem_ctrls.rdQLenPdf::20                      0                       # What read queue length does an incoming req see
system.mem_ctrls.rdQLenPdf::21                      0                       # What read queue length does an incoming req see
system.mem_ctrls.rdQLenPdf::22                      0                       # What read queue length does an incoming req see
system.mem_ctrls.rdQLenPdf::23                      0                       # What read queue length does an incoming req see
system.mem_ctrls.rdQLenPdf::24                      0                       # What read queue length does an incoming req see
system.mem_ctrls.rdQLenPdf::25                      0                       # What read queue length does an incoming req see
system.mem_ctrls.rdQLenPdf::26                      0                       # What read queue length does an incoming req see
system.mem_ctrls.rdQLenPdf::27                      0                       # What read queue length does an incoming req see
system.mem_ctrls.rdQLenPdf::28                      0                       # What read queue length does an incoming req see
system.mem_ctrls.rdQLenPdf::29                      0                       # What read queue length does an incoming req see
system.mem_ctrls.rdQLenPdf::30                      0                       # What read queue length does an incoming req see
system.mem_ctrls.rdQLenPdf::31                      0                       # What read queue length does an incoming req see
system.mem_ctrls.wrQLenPdf::0                       0                       # What write queue length does an incoming req see
system.mem_ctrls.wrQLenPdf::1                       0                       # What write queue length does an incoming req see
system.mem_ctrls.wrQLenPdf::2                       0                       # What write queue length does an incoming req see
system.mem_ctrls.wrQLenPdf::3                       0                       # What write queue length does an incoming req see
system.mem_ctrls.wrQLenPdf::4                       0                       # What write queue length does an incoming req see
system.mem_ctrls.wrQLenPdf::5                       0                       # What write queue length does an incoming req see
system.mem_ctrls.wrQLenPdf::6                       0                       # What write queue length does an incoming req see
system.mem_ctrls.wrQLenPdf::7                       0                       # What write queue length does an incoming req see
system.mem_ctrls.wrQLenPdf::8                       0                       # What write queue length does an incoming req see
system.mem_ctrls.wrQLenPdf::9                       0                       # What write queue length does an incoming req see
system.mem_ctrls.wrQLenPdf::10                      0                       # What write queue length does an incoming req see
system.mem_ctrls.wrQLenPdf::11                      0                       # What write queue length does an incoming req see
system.mem_ctrls.wrQLenPdf::12                      0                       # What write queue length does an incoming req see
system.mem_ctrls.wrQLenPdf::13                      0                       # What write queue length does an incoming req see
system.mem_ctrls.wrQLenPdf::14                      0                       # What write queue length does an incoming req see
system.mem_ctrls.wrQLenPdf::15                      0                       # What write queue length does an incoming req see
system.mem_ctrls.wrQLenPdf::16                      0                       # What write queue length does an incoming req see
system.mem_ctrls.wrQLenPdf::17                      0                       # What write queue length does an incoming req see
system.mem_ctrls.wrQLenPdf::18                      0                       # What write queue length does an incoming req see
system.mem_ctrls.wrQLenPdf::19                      0                       # What write queue length does an incoming req see
system.mem_ctrls.wrQLenPdf::20                      0                       # What write queue length does an incoming req see
system.mem_ctrls.wrQLenPdf::21                      0                       # What write queue length does an incoming req see
system.mem_ctrls.wrQLenPdf::22                      0                       # What write queue length does an incoming req see
system.mem_ctrls.wrQLenPdf::23                      0                       # What write queue length does an incoming req see
system.mem_ctrls.wrQLenPdf::24                      0                       # What write queue length does an incoming req see
system.mem_ctrls.wrQLenPdf::25                      0                       # What write queue length does an incoming req see
system.mem_ctrls.wrQLenPdf::26                      0                       # What write queue length does an incoming req see
system.mem_ctrls.wrQLenPdf::27                      0                       # What write queue length does an incoming req see
system.mem_ctrls.wrQLenPdf::28                      0                       # What write queue length does an incoming req see
system.mem_ctrls.wrQLenPdf::29                      0                       # What write queue length does an incoming req see
system.mem_ctrls.wrQLenPdf::30                      0                       # What write queue length does an incoming req see
system.mem_ctrls.wrQLenPdf::31                      0                       # What write queue length does an incoming req see
system.mem_ctrls.wrQLenPdf::32                      0                       # What write queue length does an incoming req see
system.mem_ctrls.wrQLenPdf::33                      0                       # What write queue length does an incoming req see
system.mem_ctrls.wrQLenPdf::34                      0                       # What write queue length does an incoming req see
system.mem_ctrls.wrQLenPdf::35                      0                       # What write queue length does an incoming req see
system.mem_ctrls.wrQLenPdf::36                      0                       # What write queue length does an incoming req see
system.mem_ctrls.wrQLenPdf::37                      0                       # What write queue length does an incoming req see
system.mem_ctrls.wrQLenPdf::38                      0                       # What write queue length does an incoming req see
system.mem_ctrls.wrQLenPdf::39                      0                       # What write queue length does an incoming req see
system.mem_ctrls.wrQLenPdf::40                      0                       # What write queue length does an incoming req see
system.mem_ctrls.wrQLenPdf::41                      0                       # What write queue length does an incoming req see
system.mem_ctrls.wrQLenPdf::42                      0                       # What write queue length does an incoming req see
system.mem_ctrls.wrQLenPdf::43                      0                       # What write queue length does an incoming req see
system.mem_ctrls.wrQLenPdf::44                      0                       # What write queue length does an incoming req see
system.mem_ctrls.wrQLenPdf::45                      0                       # What write queue length does an incoming req see
system.mem_ctrls.wrQLenPdf::46                      0                       # What write queue length does an incoming req see
system.mem_ctrls.wrQLenPdf::47                      0                       # What write queue length does an incoming req see
system.mem_ctrls.wrQLenPdf::48                      0                       # What write queue length does an incoming req see
system.mem_ctrls.wrQLenPdf::49                      0                       # What write queue length does an incoming req see
system.mem_ctrls.wrQLenPdf::50                      0                       # What write queue length does an incoming req see
system.mem_ctrls.wrQLenPdf::51                      0                       # What write queue length does an incoming req see
system.mem_ctrls.wrQLenPdf::52                      0                       # What write queue length does an incoming req see
system.mem_ctrls.wrQLenPdf::53                      0                       # What write queue length does an incoming req see
system.mem_ctrls.wrQLenPdf::54                      0                       # What write queue length does an incoming req see
system.mem_ctrls.wrQLenPdf::55                      0                       # What write queue length does an incoming req see
system.mem_ctrls.wrQLenPdf::56                      0                       # What write queue length does an incoming req see
system.mem_ctrls.wrQLenPdf::57                      0                       # What write queue length does an incoming req see
system.mem_ctrls.wrQLenPdf::58                      0                       # What write queue length does an incoming req see
system.mem_ctrls.wrQLenPdf::59                      0                       # What write queue length does an incoming req see
system.mem_ctrls.wrQLenPdf::60                      0                       # What write queue length does an incoming req see
system.mem_ctrls.wrQLenPdf::61                      0                       # What write queue length does an incoming req see
system.mem_ctrls.wrQLenPdf::62                      0                       # What write queue length does an incoming req see
system.mem_ctrls.wrQLenPdf::63                      0                       # What write queue length does an incoming req see
system.mem_ctrls.bytesReadDRAM                      0                       # Total number of bytes read from DRAM
system.mem_ctrls.bytesReadWrQ                       0                       # Total number of bytes read from write queue
system.mem_ctrls.bytesWritten                       0                       # Total number of bytes written to DRAM
system.mem_ctrls.bytesReadSys                       0                       # Total read bytes from the system interface side
system.mem_ctrls.bytesWrittenSys                    0                       # Total written bytes from the system interface side
system.mem_ctrls.avgRdBW                         0.00                       # Average DRAM read bandwidth in MiByte/s
system.mem_ctrls.avgWrBW                         0.00                       # Average achieved write bandwidth in MiByte/s
system.mem_ctrls.avgRdBWSys                      0.00                       # Average system read bandwidth in MiByte/s
system.mem_ctrls.avgWrBWSys                      0.00                       # Average system write bandwidth in MiByte/s
system.mem_ctrls.peakBW                      12800.00                       # Theoretical peak bandwidth in MiByte/s
system.mem_ctrls.busUtil                         0.00                       # Data bus utilization in percentage
system.mem_ctrls.busUtilRead                     0.00                       # Data bus utilization in percentage for reads
system.mem_ctrls.busUtilWrite                    0.00                       # Data bus utilization in percentage for writes
system.mem_ctrls.totGap                             0                       # Total gap between requests
system.mem_ctrls.avgGap                           nan                       # Average gap between requests
system.mem_ctrls.pageHitRate                      nan                       # Row buffer hit rate, read and write combined
system.mem_ctrls.rank1.actEnergy                    0                       # Energy for activate commands per rank (pJ)
system.mem_ctrls.rank1.preEnergy                    0                       # Energy for precharge commands per rank (pJ)
system.mem_ctrls.rank1.readEnergy                   0                       # Energy for read commands per rank (pJ)
system.mem_ctrls.rank1.writeEnergy                  0                       # Energy for write commands per rank (pJ)
system.mem_ctrls.rank1.refreshEnergy                0                       # Energy for refresh commands per rank (pJ)
system.mem_ctrls.rank1.actBackEnergy                0                       # Energy for active background per rank (pJ)
system.mem_ctrls.rank1.preBackEnergy     23423399520960                       # Energy for precharge background per rank (pJ)
system.mem_ctrls.rank1.actPowerDownEnergy            0                       # Energy for active power-down per rank (pJ)
system.mem_ctrls.rank1.prePowerDownEnergy            0                       # Energy for precharge power-down per rank (pJ)
system.mem_ctrls.rank1.selfRefreshEnergy            0                       # Energy for self refresh per rank (pJ)
system.mem_ctrls.rank1.totalEnergy       23423399520960                       # Total energy per rank (pJ)
system.mem_ctrls.rank1.averagePower        384.000000                       # Core power per rank (mW)
system.mem_ctrls.rank1.totalIdleTime                0                       # Total Idle time Per DRAM Rank
system.mem_ctrls.rank1.memoryStateTime::IDLE 60998436252042                       # Time in different power states
system.mem_ctrls.rank1.memoryStateTime::REF            0                       # Time in different power states
system.mem_ctrls.rank1.memoryStateTime::SREF            0                       # Time in different power states
system.mem_ctrls.rank1.memoryStateTime::PRE_PDN            0                       # Time in different power states
system.mem_ctrls.rank1.memoryStateTime::ACT            0                       # Time in different power states
system.mem_ctrls.rank1.memoryStateTime::ACT_PDN            0                       # Time in different power states
system.mem_ctrls.rank0.actEnergy                    0                       # Energy for activate commands per rank (pJ)
system.mem_ctrls.rank0.preEnergy                    0                       # Energy for precharge commands per rank (pJ)
system.mem_ctrls.rank0.readEnergy                   0                       # Energy for read commands per rank (pJ)
system.mem_ctrls.rank0.writeEnergy                  0                       # Energy for write commands per rank (pJ)
system.mem_ctrls.rank0.refreshEnergy                0                       # Energy for refresh commands per rank (pJ)
system.mem_ctrls.rank0.actBackEnergy                0                       # Energy for active background per rank (pJ)
system.mem_ctrls.rank0.preBackEnergy     23423399520960                       # Energy for precharge background per rank (pJ)
system.mem_ctrls.rank0.actPowerDownEnergy            0                       # Energy for active power-down per rank (pJ)
system.mem_ctrls.rank0.prePowerDownEnergy            0                       # Energy for precharge power-down per rank (pJ)
system.mem_ctrls.rank0.selfRefreshEnergy            0                       # Energy for self refresh per rank (pJ)
system.mem_ctrls.rank0.totalEnergy       23423399520960                       # Total energy per rank (pJ)
system.mem_ctrls.rank0.averagePower        384.000000                       # Core power per rank (mW)
system.mem_ctrls.rank0.totalIdleTime                0                       # Total Idle time Per DRAM Rank
system.mem_ctrls.rank0.memoryStateTime::IDLE 60998436252042                       # Time in different power states
system.mem_ctrls.rank0.memoryStateTime::REF            0                       # Time in different power states
system.mem_ctrls.rank0.memoryStateTime::SREF            0                       # Time in different power states
system.mem_ctrls.rank0.memoryStateTime::PRE_PDN            0                       # Time in different power states
system.mem_ctrls.rank0.memoryStateTime::ACT            0                       # Time in different power states
system.mem_ctrls.rank0.memoryStateTime::ACT_PDN            0                       # Time in different power states
system.cpu_clk_domain.clock                       417                       # Clock period in ticks
system.cpu.numPwrStateTransitions                   1                       # Number of power state transitions
system.cpu.pwrStateResidencyTicks::ON    60998436252042                       # Cumulative time (in ticks) in various power states
system.cpu.icache.pwrStateResidencyTicks::UNDEFINED 60998436252042                       # Cumulative time (in ticks) in various power states
system.cpu.icache.demand_hits::.cpu.inst  83216864499                       # number of demand (read+write) hits
system.cpu.icache.demand_hits::total      83216864499                       # number of demand (read+write) hits
system.cpu.icache.overall_hits::.cpu.inst  83216864499                       # number of overall hits
system.cpu.icache.overall_hits::total     83216864499                       # number of overall hits
system.cpu.icache.demand_misses::.cpu.inst    322646590                       # number of demand (read+write) misses
system.cpu.icache.demand_misses::total      322646590                       # number of demand (read+write) misses
system.cpu.icache.overall_misses::.cpu.inst    322646590                       # number of overall misses
system.cpu.icache.overall_misses::total     322646590                       # number of overall misses
system.cpu.icache.demand_accesses::.cpu.inst  83539511089                       # number of demand (read+write) accesses
system.cpu.icache.demand_accesses::total  83539511089                       # number of demand (read+write) accesses
system.cpu.icache.overall_accesses::.cpu.inst  83539511089                       # number of overall (read+write) accesses
system.cpu.icache.overall_accesses::total  83539511089                       # number of overall (read+write) accesses
system.cpu.icache.demand_miss_rate::.cpu.inst     0.003862                       # miss rate for demand accesses
system.cpu.icache.demand_miss_rate::total     0.003862                       # miss rate for demand accesses
system.cpu.icache.overall_miss_rate::.cpu.inst     0.003862                       # miss rate for overall accesses
system.cpu.icache.overall_miss_rate::total     0.003862                       # miss rate for overall accesses
system.cpu.icache.blocked_cycles::no_mshrs            0                       # number of cycles access was blocked
system.cpu.icache.blocked_cycles::no_targets            0                       # number of cycles access was blocked
system.cpu.icache.blocked::no_mshrs                 0                       # number of cycles access was blocked
system.cpu.icache.blocked::no_targets               0                       # number of cycles access was blocked
system.cpu.icache.avg_blocked_cycles::no_mshrs          nan                       # average number of cycles each access was blocked
system.cpu.icache.avg_blocked_cycles::no_targets          nan                       # average number of cycles each access was blocked
system.cpu.icache.writebacks::.writebacks    322646078                       # number of writebacks
system.cpu.icache.writebacks::total         322646078                       # number of writebacks
system.cpu.icache.replacements              322646078                       # number of replacements
system.cpu.icache.ReadReq_hits::.cpu.inst  83216864499                       # number of ReadReq hits
system.cpu.icache.ReadReq_hits::total     83216864499                       # number of ReadReq hits
system.cpu.icache.ReadReq_misses::.cpu.inst    322646590                       # number of ReadReq misses
system.cpu.icache.ReadReq_misses::total     322646590                       # number of ReadReq misses
system.cpu.icache.ReadReq_accesses::.cpu.inst  83539511089                       # number of ReadReq accesses(hits+misses)
system.cpu.icache.ReadReq_accesses::total  83539511089                       # number of ReadReq accesses(hits+misses)
system.cpu.icache.ReadReq_miss_rate::.cpu.inst     0.003862                       # miss rate for ReadReq accesses
system.cpu.icache.ReadReq_miss_rate::total     0.003862                       # miss rate for ReadReq accesses
system.cpu.icache.tags.pwrStateResidencyTicks::UNDEFINED 60998436252042                       # Cumulative time (in ticks) in various power states
system.cpu.icache.tags.tagsinuse           511.998249                       # Cycle average of tags in use
system.cpu.icache.tags.total_refs         83539511089                       # Total number of references to valid blocks.
system.cpu.icache.tags.sampled_refs         322646590                       # Sample count of references to valid blocks.
system.cpu.icache.tags.avg_refs            258.919554                       # Average number of references to valid blocks.
system.cpu.icache.tags.warmup_cycle                 0                       # Cycle when the warmup percentage was hit.
system.cpu.icache.tags.occ_blocks::.cpu.inst   511.998249                       # Average occupied blocks per requestor
system.cpu.icache.tags.occ_percent::.cpu.inst     0.999997                       # Average percentage of cache occupancy
system.cpu.icache.tags.occ_percent::total     0.999997                       # Average percentage of cache occupancy
system.cpu.icache.tags.occ_task_id_blocks::1024          512                       # Occupied blocks per task id
system.cpu.icache.tags.age_task_id_blocks_1024::0          144                       # Occupied blocks per task id
system.cpu.icache.tags.age_task_id_blocks_1024::1           69                       # Occupied blocks per task id
system.cpu.icache.tags.age_task_id_blocks_1024::4          299                       # Occupied blocks per task id
system.cpu.icache.tags.occ_task_id_percent::1024            1                       # Percentage of cache occupancy per task id
system.cpu.icache.tags.tag_accesses      167401668768                       # Number of tag accesses
system.cpu.icache.tags.data_accesses     167401668768                       # Number of data accesses
system.cpu.dtb.walker.pwrStateResidencyTicks::UNDEFINED 60998436252042                       # Cumulative time (in ticks) in various power states
system.cpu.interrupts.clk_domain.clock           6672                       # Clock period in ticks
system.cpu.itb_walker_cache.pwrStateResidencyTicks::UNDEFINED 60998436252042                       # Cumulative time (in ticks) in various power states
system.cpu.itb_walker_cache.blocked_cycles::no_mshrs            0                       # number of cycles access was blocked
system.cpu.itb_walker_cache.blocked_cycles::no_targets            0                       # number of cycles access was blocked
system.cpu.itb_walker_cache.blocked::no_mshrs            0                       # number of cycles access was blocked
system.cpu.itb_walker_cache.blocked::no_targets            0                       # number of cycles access was blocked
system.cpu.itb_walker_cache.avg_blocked_cycles::no_mshrs          nan                       # average number of cycles each access was blocked
system.cpu.itb_walker_cache.avg_blocked_cycles::no_targets          nan                       # average number of cycles each access was blocked
system.cpu.itb_walker_cache.replacements            0                       # number of replacements
system.cpu.itb_walker_cache.tags.pwrStateResidencyTicks::UNDEFINED 60998436252042                       # Cumulative time (in ticks) in various power states
system.cpu.itb_walker_cache.tags.tagsinuse            0                       # Cycle average of tags in use
system.cpu.itb_walker_cache.tags.total_refs            0                       # Total number of references to valid blocks.
system.cpu.itb_walker_cache.tags.sampled_refs            0                       # Sample count of references to valid blocks.
system.cpu.itb_walker_cache.tags.avg_refs          nan                       # Average number of references to valid blocks.
system.cpu.itb_walker_cache.tags.warmup_cycle            0                       # Cycle when the warmup percentage was hit.
system.cpu.itb_walker_cache.tags.tag_accesses            0                       # Number of tag accesses
system.cpu.itb_walker_cache.tags.data_accesses            0                       # Number of data accesses
system.cpu.itb.walker.pwrStateResidencyTicks::UNDEFINED 60998436252042                       # Cumulative time (in ticks) in various power states
system.cpu.dtb_walker_cache.pwrStateResidencyTicks::UNDEFINED 60998436252042                       # Cumulative time (in ticks) in various power states
system.cpu.dtb_walker_cache.blocked_cycles::no_mshrs            0                       # number of cycles access was blocked
system.cpu.dtb_walker_cache.blocked_cycles::no_targets            0                       # number of cycles access was blocked
system.cpu.dtb_walker_cache.blocked::no_mshrs            0                       # number of cycles access was blocked
system.cpu.dtb_walker_cache.blocked::no_targets            0                       # number of cycles access was blocked
system.cpu.dtb_walker_cache.avg_blocked_cycles::no_mshrs          nan                       # average number of cycles each access was blocked
system.cpu.dtb_walker_cache.avg_blocked_cycles::no_targets          nan                       # average number of cycles each access was blocked
system.cpu.dtb_walker_cache.replacements            0                       # number of replacements
system.cpu.dtb_walker_cache.tags.pwrStateResidencyTicks::UNDEFINED 60998436252042                       # Cumulative time (in ticks) in various power states
system.cpu.dtb_walker_cache.tags.tagsinuse            0                       # Cycle average of tags in use
system.cpu.dtb_walker_cache.tags.total_refs            0                       # Total number of references to valid blocks.
system.cpu.dtb_walker_cache.tags.sampled_refs            0                       # Sample count of references to valid blocks.
system.cpu.dtb_walker_cache.tags.avg_refs          nan                       # Average number of references to valid blocks.
system.cpu.dtb_walker_cache.tags.warmup_cycle            0                       # Cycle when the warmup percentage was hit.
system.cpu.dtb_walker_cache.tags.tag_accesses            0                       # Number of tag accesses
system.cpu.dtb_walker_cache.tags.data_accesses            0                       # Number of data accesses
system.cpu.dcache.pwrStateResidencyTicks::UNDEFINED 60998436252042                       # Cumulative time (in ticks) in various power states
system.cpu.dcache.demand_hits::.cpu.data  30715942183                       # number of demand (read+write) hits
system.cpu.dcache.demand_hits::total      30715942183                       # number of demand (read+write) hits
system.cpu.dcache.overall_hits::.cpu.data  30715942183                       # number of overall hits
system.cpu.dcache.overall_hits::total     30715942183                       # number of overall hits
system.cpu.dcache.demand_misses::.cpu.data    193797825                       # number of demand (read+write) misses
system.cpu.dcache.demand_misses::total      193797825                       # number of demand (read+write) misses
system.cpu.dcache.overall_misses::.cpu.data    193797825                       # number of overall misses
system.cpu.dcache.overall_misses::total     193797825                       # number of overall misses
system.cpu.dcache.demand_accesses::.cpu.data  30909740008                       # number of demand (read+write) accesses
system.cpu.dcache.demand_accesses::total  30909740008                       # number of demand (read+write) accesses
system.cpu.dcache.overall_accesses::.cpu.data  30909740008                       # number of overall (read+write) accesses
system.cpu.dcache.overall_accesses::total  30909740008                       # number of overall (read+write) accesses
system.cpu.dcache.demand_miss_rate::.cpu.data     0.006270                       # miss rate for demand accesses
system.cpu.dcache.demand_miss_rate::total     0.006270                       # miss rate for demand accesses
system.cpu.dcache.overall_miss_rate::.cpu.data     0.006270                       # miss rate for overall accesses
system.cpu.dcache.overall_miss_rate::total     0.006270                       # miss rate for overall accesses
system.cpu.dcache.blocked_cycles::no_mshrs            0                       # number of cycles access was blocked
system.cpu.dcache.blocked_cycles::no_targets            0                       # number of cycles access was blocked
system.cpu.dcache.blocked::no_mshrs                 0                       # number of cycles access was blocked
system.cpu.dcache.blocked::no_targets               0                       # number of cycles access was blocked
system.cpu.dcache.avg_blocked_cycles::no_mshrs          nan                       # average number of cycles each access was blocked
system.cpu.dcache.avg_blocked_cycles::no_targets          nan                       # average number of cycles each access was blocked
system.cpu.dcache.writebacks::.writebacks     64298020                       # number of writebacks
system.cpu.dcache.writebacks::total          64298020                       # number of writebacks
system.cpu.dcache.replacements              193797313                       # number of replacements
system.cpu.dcache.ReadReq_hits::.cpu.data  19583578804                       # number of ReadReq hits
system.cpu.dcache.ReadReq_hits::total     19583578804                       # number of ReadReq hits
system.cpu.dcache.ReadReq_misses::.cpu.data    158227495                       # number of ReadReq misses
system.cpu.dcache.ReadReq_misses::total     158227495                       # number of ReadReq misses
system.cpu.dcache.ReadReq_accesses::.cpu.data  19741806299                       # number of ReadReq accesses(hits+misses)
system.cpu.dcache.ReadReq_accesses::total  19741806299                       # number of ReadReq accesses(hits+misses)
system.cpu.dcache.ReadReq_miss_rate::.cpu.data     0.008015                       # miss rate for ReadReq accesses
system.cpu.dcache.ReadReq_miss_rate::total     0.008015                       # miss rate for ReadReq accesses
system.cpu.dcache.WriteReq_hits::.cpu.data  11132363379                       # number of WriteReq hits
system.cpu.dcache.WriteReq_hits::total    11132363379                       # number of WriteReq hits
system.cpu.dcache.WriteReq_misses::.cpu.data     35570330                       # number of WriteReq misses
system.cpu.dcache.WriteReq_misses::total     35570330                       # number of WriteReq misses
system.cpu.dcache.WriteReq_accesses::.cpu.data  11167933709                       # number of WriteReq accesses(hits+misses)
system.cpu.dcache.WriteReq_accesses::total  11167933709                       # number of WriteReq accesses(hits+misses)
system.cpu.dcache.WriteReq_miss_rate::.cpu.data     0.003185                       # miss rate for WriteReq accesses
system.cpu.dcache.WriteReq_miss_rate::total     0.003185                       # miss rate for WriteReq accesses
system.cpu.dcache.tags.pwrStateResidencyTicks::UNDEFINED 60998436252042                       # Cumulative time (in ticks) in various power states
system.cpu.dcache.tags.tagsinuse           511.999799                       # Cycle average of tags in use
system.cpu.dcache.tags.total_refs         30909740008                       # Total number of references to valid blocks.
system.cpu.dcache.tags.sampled_refs         193797825                       # Sample count of references to valid blocks.
system.cpu.dcache.tags.avg_refs            159.494772                       # Average number of references to valid blocks.
system.cpu.dcache.tags.warmup_cycle              1251                       # Cycle when the warmup percentage was hit.
system.cpu.dcache.tags.occ_blocks::.cpu.data   511.999799                       # Average occupied blocks per requestor
system.cpu.dcache.tags.occ_percent::.cpu.data     1.000000                       # Average percentage of cache occupancy
system.cpu.dcache.tags.occ_percent::total     1.000000                       # Average percentage of cache occupancy
system.cpu.dcache.tags.occ_task_id_blocks::1024          512                       # Occupied blocks per task id
system.cpu.dcache.tags.age_task_id_blocks_1024::0          293                       # Occupied blocks per task id
system.cpu.dcache.tags.age_task_id_blocks_1024::1          219                       # Occupied blocks per task id
system.cpu.dcache.tags.occ_task_id_percent::1024            1                       # Percentage of cache occupancy per task id
system.cpu.dcache.tags.tag_accesses       62013277841                       # Number of tag accesses
system.cpu.dcache.tags.data_accesses      62013277841                       # Number of data accesses

---------- End Simulation Statistics   ----------
