
---------- Begin Simulation Statistics ----------
final_tick                               2349285447684                       # Number of ticks from beginning of simulation (restored from checkpoints and never reset)
host_inst_rate                                1181414                       # Simulator instruction rate (inst/s)
host_mem_usage                                2464244                       # Number of bytes of host memory used
host_op_rate                                  2388777                       # Simulator op (including micro ops) rate (op/s)
host_seconds                                  2041.38                       # Real time elapsed on the host
host_tick_rate                             1150831777                       # Simulator tick rate (ticks/s)
sim_freq                                 1000000000000                       # Frequency of simulated ticks
sim_insts                                  2411714237                       # Number of instructions simulated
sim_ops                                    4876402922                       # Number of ops (including micro ops) simulated
sim_seconds                                  2.349285                       # Number of seconds simulated
sim_ticks                                2349285447684                       # Number of ticks simulated
system.cpu.Branches                         549039805                       # Number of branches fetched
system.cpu.committedInsts                  2411714237                       # Number of instructions committed
system.cpu.committedOps                    4876402922                       # Number of ops (including micro ops) committed
system.cpu.dtb.rdAccesses                   765698949                       # TLB accesses on read requests
system.cpu.dtb.rdMisses                         11661                       # TLB misses on read requests
system.cpu.dtb.wrAccesses                   456879927                       # TLB accesses on write requests
system.cpu.dtb.wrMisses                          7919                       # TLB misses on write requests
system.cpu.idle_fraction                     0.000000                       # Percentage of idle cycles
system.cpu.itb.rdAccesses                           0                       # TLB accesses on read requests
system.cpu.itb.rdMisses                             0                       # TLB misses on read requests
system.cpu.itb.wrAccesses                  3186537939                       # TLB accesses on write requests
system.cpu.itb.wrMisses                           449                       # TLB misses on write requests
system.cpu.not_idle_fraction                 1.000000                       # Percentage of non-idle cycles
system.cpu.numCycles                       5651226624                       # number of cpu cycles simulated
system.cpu.numWorkItemsCompleted                    0                       # number of work items this cpu completed
system.cpu.numWorkItemsStarted                      0                       # number of work items this cpu started
system.cpu.num_busy_cycles               5651226623.997595                       # Number of busy cycles
system.cpu.num_cc_register_reads           2316938282                       # number of times the CC registers were read
system.cpu.num_cc_register_writes          1254479085                       # number of times the CC registers were written
system.cpu.num_conditional_control_insts    328822519                       # number of instructions that are conditional controls
system.cpu.num_fp_alu_accesses               55639097                       # Number of float alu accesses
system.cpu.num_fp_insts                      55639097                       # number of float instructions
system.cpu.num_fp_register_reads             94993681                       # number of times the floating registers were read
system.cpu.num_fp_register_writes            48502244                       # number of times the floating registers were written
system.cpu.num_func_calls                   137124748                       # number of times a function call or return occured
system.cpu.num_idle_cycles                   0.002405                       # Number of idle cycles
system.cpu.num_int_alu_accesses            4793806081                       # Number of integer alu accesses
system.cpu.num_int_insts                   4793806081                       # number of integer instructions
system.cpu.num_int_register_reads          9911822370                       # number of times the integer registers were read
system.cpu.num_int_register_writes         3906257619                       # number of times the integer registers were written
system.cpu.num_load_insts                   765111540                       # Number of load instructions
system.cpu.num_mem_refs                    1221174015                       # number of memory refs
system.cpu.num_store_insts                  456062475                       # Number of store instructions
system.cpu.num_vec_alu_accesses                     0                       # Number of vector alu accesses
system.cpu.num_vec_insts                            0                       # number of vector instructions
system.cpu.num_vec_register_reads                   0                       # number of times the vector registers were read
system.cpu.num_vec_register_writes                  0                       # number of times the vector registers were written
system.cpu.op_class::No_OpClass              26808028      0.55%      0.55% # Class of executed instruction
system.cpu.op_class::IntAlu                3528016027     72.35%     72.90% # Class of executed instruction
system.cpu.op_class::IntMult                  5046862      0.10%     73.00% # Class of executed instruction
system.cpu.op_class::IntDiv                  53900556      1.11%     74.11% # Class of executed instruction
system.cpu.op_class::FloatAdd                  542863      0.01%     74.12% # Class of executed instruction
system.cpu.op_class::FloatCmp                       0      0.00%     74.12% # Class of executed instruction
system.cpu.op_class::FloatCvt                    3008      0.00%     74.12% # Class of executed instruction
system.cpu.op_class::FloatMult                      0      0.00%     74.12% # Class of executed instruction
system.cpu.op_class::FloatMultAcc                   0      0.00%     74.12% # Class of executed instruction
system.cpu.op_class::FloatDiv                       0      0.00%     74.12% # Class of executed instruction
system.cpu.op_class::FloatMisc                      0      0.00%     74.12% # Class of executed instruction
system.cpu.op_class::FloatSqrt                      0      0.00%     74.12% # Class of executed instruction
system.cpu.op_class::SimdAdd                  4315970      0.09%     74.21% # Class of executed instruction
system.cpu.op_class::SimdAddAcc                     0      0.00%     74.21% # Class of executed instruction
system.cpu.op_class::SimdAlu                  7696965      0.16%     74.36% # Class of executed instruction
system.cpu.op_class::SimdCmp                        6      0.00%     74.36% # Class of executed instruction
system.cpu.op_class::SimdCvt                 11798230      0.24%     74.61% # Class of executed instruction
system.cpu.op_class::SimdMisc                10943450      0.22%     74.83% # Class of executed instruction
system.cpu.op_class::SimdMult                       0      0.00%     74.83% # Class of executed instruction
system.cpu.op_class::SimdMultAcc                    0      0.00%     74.83% # Class of executed instruction
system.cpu.op_class::SimdShift                6156933      0.13%     74.96% # Class of executed instruction
system.cpu.op_class::SimdShiftAcc                   0      0.00%     74.96% # Class of executed instruction
system.cpu.op_class::SimdDiv                        0      0.00%     74.96% # Class of executed instruction
system.cpu.op_class::SimdSqrt                       0      0.00%     74.96% # Class of executed instruction
system.cpu.op_class::SimdFloatAdd                   1      0.00%     74.96% # Class of executed instruction
system.cpu.op_class::SimdFloatAlu                   0      0.00%     74.96% # Class of executed instruction
system.cpu.op_class::SimdFloatCmp                   0      0.00%     74.96% # Class of executed instruction
system.cpu.op_class::SimdFloatCvt                   4      0.00%     74.96% # Class of executed instruction
system.cpu.op_class::SimdFloatDiv                   4      0.00%     74.96% # Class of executed instruction
system.cpu.op_class::SimdFloatMisc                  0      0.00%     74.96% # Class of executed instruction
system.cpu.op_class::SimdFloatMult                  0      0.00%     74.96% # Class of executed instruction
system.cpu.op_class::SimdFloatMultAcc               0      0.00%     74.96% # Class of executed instruction
system.cpu.op_class::SimdFloatSqrt                  0      0.00%     74.96% # Class of executed instruction
system.cpu.op_class::SimdReduceAdd                  0      0.00%     74.96% # Class of executed instruction
system.cpu.op_class::SimdReduceAlu                  0      0.00%     74.96% # Class of executed instruction
system.cpu.op_class::SimdReduceCmp                  0      0.00%     74.96% # Class of executed instruction
system.cpu.op_class::SimdFloatReduceAdd             0      0.00%     74.96% # Class of executed instruction
system.cpu.op_class::SimdFloatReduceCmp             0      0.00%     74.96% # Class of executed instruction
system.cpu.op_class::SimdAes                        0      0.00%     74.96% # Class of executed instruction
system.cpu.op_class::SimdAesMix                     0      0.00%     74.96% # Class of executed instruction
system.cpu.op_class::SimdSha1Hash                   0      0.00%     74.96% # Class of executed instruction
system.cpu.op_class::SimdSha1Hash2                  0      0.00%     74.96% # Class of executed instruction
system.cpu.op_class::SimdSha256Hash                 0      0.00%     74.96% # Class of executed instruction
system.cpu.op_class::SimdSha256Hash2                0      0.00%     74.96% # Class of executed instruction
system.cpu.op_class::SimdShaSigma2                  0      0.00%     74.96% # Class of executed instruction
system.cpu.op_class::SimdShaSigma3                  0      0.00%     74.96% # Class of executed instruction
system.cpu.op_class::SimdPredAlu                    0      0.00%     74.96% # Class of executed instruction
system.cpu.op_class::MemRead                753280926     15.45%     90.40% # Class of executed instruction
system.cpu.op_class::MemWrite               456003499      9.35%     99.76% # Class of executed instruction
system.cpu.op_class::FloatMemRead            11830614      0.24%    100.00% # Class of executed instruction
system.cpu.op_class::FloatMemWrite              58976      0.00%    100.00% # Class of executed instruction
system.cpu.op_class::IprAccess                      0      0.00%    100.00% # Class of executed instruction
system.cpu.op_class::InstPrefetch                   0      0.00%    100.00% # Class of executed instruction
system.cpu.op_class::total                 4876402922                       # Class of executed instruction
system.cpu.workload.numSyscalls                  2129                       # Number of system calls
system.membus.snoop_filter.hit_multi_requests            0                       # Number of requests hitting in the snoop filter with multiple (>1) holders of the requested data.
system.membus.snoop_filter.hit_multi_snoops            0                       # Number of snoops hitting in the snoop filter with multiple (>1) holders of the requested data.
system.membus.snoop_filter.hit_single_requests       800820                       # Number of requests hitting in the snoop filter with a single holder of the requested data.
system.membus.snoop_filter.hit_single_snoops            0                       # Number of snoops hitting in the snoop filter with a single holder of the requested data.
system.membus.snoop_filter.tot_requests       1634654                       # Total number of requests made to the snoop filter.
system.membus.snoop_filter.tot_snoops               0                       # Total number of snoops made to the snoop filter.
system.tol2bus.snoop_filter.hit_multi_requests            0                       # Number of requests hitting in the snoop filter with multiple (>1) holders of the requested data.
system.tol2bus.snoop_filter.hit_multi_snoops            0                       # Number of snoops hitting in the snoop filter with multiple (>1) holders of the requested data.
system.tol2bus.snoop_filter.hit_single_requests     22919217                       # Number of requests hitting in the snoop filter with a single holder of the requested data.
system.tol2bus.snoop_filter.hit_single_snoops         1430                       # Number of snoops hitting in the snoop filter with a single holder of the requested data.
system.tol2bus.snoop_filter.tot_requests     45839458                       # Total number of requests made to the snoop filter.
system.tol2bus.snoop_filter.tot_snoops           1430                       # Total number of snoops made to the snoop filter.
system.membus.pwrStateResidencyTicks::UNDEFINED 2349285447684                       # Cumulative time (in ticks) in various power states
system.membus.trans_dist::ReadResp             478673                       # Transaction distribution
system.membus.trans_dist::WritebackDirty       445548                       # Transaction distribution
system.membus.trans_dist::CleanEvict           355272                       # Transaction distribution
system.membus.trans_dist::ReadExReq            355161                       # Transaction distribution
system.membus.trans_dist::ReadExResp           355161                       # Transaction distribution
system.membus.trans_dist::ReadSharedReq        478673                       # Transaction distribution
system.membus.pkt_count_system.l2.mem_side::system.mem_ctrls.port      2468488                       # Packet count per connected master and slave (bytes)
system.membus.pkt_count_system.l2.mem_side::total      2468488                       # Packet count per connected master and slave (bytes)
system.membus.pkt_count::total                2468488                       # Packet count per connected master and slave (bytes)
system.membus.pkt_size_system.l2.mem_side::system.mem_ctrls.port     81880448                       # Cumulative packet size per connected master and slave (bytes)
system.membus.pkt_size_system.l2.mem_side::total     81880448                       # Cumulative packet size per connected master and slave (bytes)
system.membus.pkt_size::total                81880448                       # Cumulative packet size per connected master and slave (bytes)
system.membus.snoops                                0                       # Total snoops (count)
system.membus.snoopTraffic                          0                       # Total snoop traffic (bytes)
system.membus.snoop_fanout::samples            833834                       # Request fanout histogram
system.membus.snoop_fanout::mean                    0                       # Request fanout histogram
system.membus.snoop_fanout::stdev                   0                       # Request fanout histogram
system.membus.snoop_fanout::underflows              0      0.00%      0.00% # Request fanout histogram
system.membus.snoop_fanout::0                  833834    100.00%    100.00% # Request fanout histogram
system.membus.snoop_fanout::1                       0      0.00%    100.00% # Request fanout histogram
system.membus.snoop_fanout::overflows               0      0.00%    100.00% # Request fanout histogram
system.membus.snoop_fanout::min_value               0                       # Request fanout histogram
system.membus.snoop_fanout::max_value               0                       # Request fanout histogram
system.membus.snoop_fanout::total              833834                       # Request fanout histogram
system.tol2bus.pwrStateResidencyTicks::UNDEFINED 2349285447684                       # Cumulative time (in ticks) in various power states
system.tol2bus.trans_dist::ReadResp          22488042                       # Transaction distribution
system.tol2bus.trans_dist::WritebackDirty      1577626                       # Transaction distribution
system.tol2bus.trans_dist::WritebackClean     18099816                       # Transaction distribution
system.tol2bus.trans_dist::CleanEvict         3241775                       # Transaction distribution
system.tol2bus.trans_dist::ReadExReq           432199                       # Transaction distribution
system.tol2bus.trans_dist::ReadExResp          432199                       # Transaction distribution
system.tol2bus.trans_dist::ReadCleanReq      18100328                       # Transaction distribution
system.tol2bus.trans_dist::ReadSharedReq      4387714                       # Transaction distribution
system.tol2bus.pkt_count_system.cpu.icache.mem_side::system.l2.cpu_side     54300472                       # Packet count per connected master and slave (bytes)
system.tol2bus.pkt_count_system.cpu.dcache.mem_side::system.l2.cpu_side     14459227                       # Packet count per connected master and slave (bytes)
system.tol2bus.pkt_count::total              68759699                       # Packet count per connected master and slave (bytes)
system.tol2bus.pkt_size_system.cpu.icache.mem_side::system.l2.cpu_side   2316809216                       # Cumulative packet size per connected master and slave (bytes)
system.tol2bus.pkt_size_system.cpu.dcache.mem_side::system.l2.cpu_side    409442496                       # Cumulative packet size per connected master and slave (bytes)
system.tol2bus.pkt_size::total             2726251712                       # Cumulative packet size per connected master and slave (bytes)
system.tol2bus.snoops                          802214                       # Total snoops (count)
system.tol2bus.snoopTraffic                  28515072                       # Total snoop traffic (bytes)
system.tol2bus.snoop_fanout::samples         23722455                       # Request fanout histogram
system.tol2bus.snoop_fanout::mean            0.000060                       # Request fanout histogram
system.tol2bus.snoop_fanout::stdev           0.007764                       # Request fanout histogram
system.tol2bus.snoop_fanout::underflows             0      0.00%      0.00% # Request fanout histogram
system.tol2bus.snoop_fanout::0               23721025     99.99%     99.99% # Request fanout histogram
system.tol2bus.snoop_fanout::1                   1430      0.01%    100.00% # Request fanout histogram
system.tol2bus.snoop_fanout::2                      0      0.00%    100.00% # Request fanout histogram
system.tol2bus.snoop_fanout::3                      0      0.00%    100.00% # Request fanout histogram
system.tol2bus.snoop_fanout::4                      0      0.00%    100.00% # Request fanout histogram
system.tol2bus.snoop_fanout::overflows              0      0.00%    100.00% # Request fanout histogram
system.tol2bus.snoop_fanout::min_value              0                       # Request fanout histogram
system.tol2bus.snoop_fanout::max_value              1                       # Request fanout histogram
system.tol2bus.snoop_fanout::total           23722455                       # Request fanout histogram
system.voltage_domain.voltage                       1                       # Voltage in Volts
system.clk_domain.clock                          1000                       # Clock period in ticks
system.l2.pwrStateResidencyTicks::UNDEFINED 2349285447684                       # Cumulative time (in ticks) in various power states
system.l2.demand_hits::.cpu.inst             18097166                       # number of demand (read+write) hits
system.l2.demand_hits::.cpu.data              3989241                       # number of demand (read+write) hits
system.l2.demand_hits::total                 22086407                       # number of demand (read+write) hits
system.l2.overall_hits::.cpu.inst            18097166                       # number of overall hits
system.l2.overall_hits::.cpu.data             3989241                       # number of overall hits
system.l2.overall_hits::total                22086407                       # number of overall hits
system.l2.demand_misses::.cpu.inst               3162                       # number of demand (read+write) misses
system.l2.demand_misses::.cpu.data             830672                       # number of demand (read+write) misses
system.l2.demand_misses::total                 833834                       # number of demand (read+write) misses
system.l2.overall_misses::.cpu.inst              3162                       # number of overall misses
system.l2.overall_misses::.cpu.data            830672                       # number of overall misses
system.l2.overall_misses::total                833834                       # number of overall misses
system.l2.demand_accesses::.cpu.inst         18100328                       # number of demand (read+write) accesses
system.l2.demand_accesses::.cpu.data          4819913                       # number of demand (read+write) accesses
system.l2.demand_accesses::total             22920241                       # number of demand (read+write) accesses
system.l2.overall_accesses::.cpu.inst        18100328                       # number of overall (read+write) accesses
system.l2.overall_accesses::.cpu.data         4819913                       # number of overall (read+write) accesses
system.l2.overall_accesses::total            22920241                       # number of overall (read+write) accesses
system.l2.demand_miss_rate::.cpu.inst        0.000175                       # miss rate for demand accesses
system.l2.demand_miss_rate::.cpu.data        0.172342                       # miss rate for demand accesses
system.l2.demand_miss_rate::total            0.036380                       # miss rate for demand accesses
system.l2.overall_miss_rate::.cpu.inst       0.000175                       # miss rate for overall accesses
system.l2.overall_miss_rate::.cpu.data       0.172342                       # miss rate for overall accesses
system.l2.overall_miss_rate::total           0.036380                       # miss rate for overall accesses
system.l2.blocked_cycles::no_mshrs                  0                       # number of cycles access was blocked
system.l2.blocked_cycles::no_targets                0                       # number of cycles access was blocked
system.l2.blocked::no_mshrs                         0                       # number of cycles access was blocked
system.l2.blocked::no_targets                       0                       # number of cycles access was blocked
system.l2.avg_blocked_cycles::no_mshrs            nan                       # average number of cycles each access was blocked
system.l2.avg_blocked_cycles::no_targets          nan                       # average number of cycles each access was blocked
system.l2.writebacks::.writebacks              445548                       # number of writebacks
system.l2.writebacks::total                    445548                       # number of writebacks
system.l2.replacements                         802214                       # number of replacements
system.l2.WritebackDirty_hits::.writebacks      1577626                       # number of WritebackDirty hits
system.l2.WritebackDirty_hits::total          1577626                       # number of WritebackDirty hits
system.l2.WritebackDirty_accesses::.writebacks      1577626                       # number of WritebackDirty accesses(hits+misses)
system.l2.WritebackDirty_accesses::total      1577626                       # number of WritebackDirty accesses(hits+misses)
system.l2.WritebackClean_hits::.writebacks     18099816                       # number of WritebackClean hits
system.l2.WritebackClean_hits::total         18099816                       # number of WritebackClean hits
system.l2.WritebackClean_accesses::.writebacks     18099816                       # number of WritebackClean accesses(hits+misses)
system.l2.WritebackClean_accesses::total     18099816                       # number of WritebackClean accesses(hits+misses)
system.l2.ReadExReq_hits::.cpu.data             77038                       # number of ReadExReq hits
system.l2.ReadExReq_hits::total                 77038                       # number of ReadExReq hits
system.l2.ReadExReq_misses::.cpu.data          355161                       # number of ReadExReq misses
system.l2.ReadExReq_misses::total              355161                       # number of ReadExReq misses
system.l2.ReadExReq_accesses::.cpu.data        432199                       # number of ReadExReq accesses(hits+misses)
system.l2.ReadExReq_accesses::total            432199                       # number of ReadExReq accesses(hits+misses)
system.l2.ReadExReq_miss_rate::.cpu.data     0.821753                       # miss rate for ReadExReq accesses
system.l2.ReadExReq_miss_rate::total         0.821753                       # miss rate for ReadExReq accesses
system.l2.ReadCleanReq_hits::.cpu.inst       18097166                       # number of ReadCleanReq hits
system.l2.ReadCleanReq_hits::total           18097166                       # number of ReadCleanReq hits
system.l2.ReadCleanReq_misses::.cpu.inst         3162                       # number of ReadCleanReq misses
system.l2.ReadCleanReq_misses::total             3162                       # number of ReadCleanReq misses
system.l2.ReadCleanReq_accesses::.cpu.inst     18100328                       # number of ReadCleanReq accesses(hits+misses)
system.l2.ReadCleanReq_accesses::total       18100328                       # number of ReadCleanReq accesses(hits+misses)
system.l2.ReadCleanReq_miss_rate::.cpu.inst     0.000175                       # miss rate for ReadCleanReq accesses
system.l2.ReadCleanReq_miss_rate::total      0.000175                       # miss rate for ReadCleanReq accesses
system.l2.ReadSharedReq_hits::.cpu.data       3912203                       # number of ReadSharedReq hits
system.l2.ReadSharedReq_hits::total           3912203                       # number of ReadSharedReq hits
system.l2.ReadSharedReq_misses::.cpu.data       475511                       # number of ReadSharedReq misses
system.l2.ReadSharedReq_misses::total          475511                       # number of ReadSharedReq misses
system.l2.ReadSharedReq_accesses::.cpu.data      4387714                       # number of ReadSharedReq accesses(hits+misses)
system.l2.ReadSharedReq_accesses::total       4387714                       # number of ReadSharedReq accesses(hits+misses)
system.l2.ReadSharedReq_miss_rate::.cpu.data     0.108373                       # miss rate for ReadSharedReq accesses
system.l2.ReadSharedReq_miss_rate::total     0.108373                       # miss rate for ReadSharedReq accesses
system.l2.tags.pwrStateResidencyTicks::UNDEFINED 2349285447684                       # Cumulative time (in ticks) in various power states
system.l2.tags.tagsinuse                 31113.234804                       # Cycle average of tags in use
system.l2.tags.total_refs                    45839422                       # Total number of references to valid blocks.
system.l2.tags.sampled_refs                    834982                       # Sample count of references to valid blocks.
system.l2.tags.avg_refs                     54.898695                       # Average number of references to valid blocks.
system.l2.tags.warmup_cycle                         0                       # Cycle when the warmup percentage was hit.
system.l2.tags.occ_blocks::.writebacks      53.235057                       # Average occupied blocks per requestor
system.l2.tags.occ_blocks::.cpu.inst       416.077777                       # Average occupied blocks per requestor
system.l2.tags.occ_blocks::.cpu.data     30643.921969                       # Average occupied blocks per requestor
system.l2.tags.occ_percent::.writebacks      0.001625                       # Average percentage of cache occupancy
system.l2.tags.occ_percent::.cpu.inst        0.012698                       # Average percentage of cache occupancy
system.l2.tags.occ_percent::.cpu.data        0.935178                       # Average percentage of cache occupancy
system.l2.tags.occ_percent::total            0.949501                       # Average percentage of cache occupancy
system.l2.tags.occ_task_id_blocks::1024         32768                       # Occupied blocks per task id
system.l2.tags.age_task_id_blocks_1024::0          477                       # Occupied blocks per task id
system.l2.tags.age_task_id_blocks_1024::1          994                       # Occupied blocks per task id
system.l2.tags.age_task_id_blocks_1024::2         5103                       # Occupied blocks per task id
system.l2.tags.age_task_id_blocks_1024::3        26194                       # Occupied blocks per task id
system.l2.tags.occ_task_id_percent::1024            1                       # Percentage of cache occupancy per task id
system.l2.tags.tag_accesses                 367550646                       # Number of tag accesses
system.l2.tags.data_accesses                367550646                       # Number of data accesses
system.cpu_voltage_domain.voltage                   1                       # Voltage in Volts
system.mem_ctrls.pwrStateResidencyTicks::UNDEFINED 2349285447684                       # Cumulative time (in ticks) in various power states
system.mem_ctrls.bytes_read::.cpu.inst         202368                       # Number of bytes read from this memory
system.mem_ctrls.bytes_read::.cpu.data       53163008                       # Number of bytes read from this memory
system.mem_ctrls.bytes_read::total           53365376                       # Number of bytes read from this memory
system.mem_ctrls.bytes_inst_read::.cpu.inst       202368                       # Number of instructions bytes read from this memory
system.mem_ctrls.bytes_inst_read::total        202368                       # Number of instructions bytes read from this memory
system.mem_ctrls.bytes_written::.writebacks     28515072                       # Number of bytes written to this memory
system.mem_ctrls.bytes_written::total        28515072                       # Number of bytes written to this memory
system.mem_ctrls.num_reads::.cpu.inst            3162                       # Number of read requests responded to by this memory
system.mem_ctrls.num_reads::.cpu.data          830672                       # Number of read requests responded to by this memory
system.mem_ctrls.num_reads::total              833834                       # Number of read requests responded to by this memory
system.mem_ctrls.num_writes::.writebacks       445548                       # Number of write requests responded to by this memory
system.mem_ctrls.num_writes::total             445548                       # Number of write requests responded to by this memory
system.mem_ctrls.bw_read::.cpu.inst             86140                       # Total read bandwidth from this memory (bytes/s)
system.mem_ctrls.bw_read::.cpu.data          22629437                       # Total read bandwidth from this memory (bytes/s)
system.mem_ctrls.bw_read::total              22715578                       # Total read bandwidth from this memory (bytes/s)
system.mem_ctrls.bw_inst_read::.cpu.inst        86140                       # Instruction read bandwidth from this memory (bytes/s)
system.mem_ctrls.bw_inst_read::total            86140                       # Instruction read bandwidth from this memory (bytes/s)
system.mem_ctrls.bw_write::.writebacks       12137764                       # Write bandwidth from this memory (bytes/s)
system.mem_ctrls.bw_write::total             12137764                       # Write bandwidth from this memory (bytes/s)
system.mem_ctrls.bw_total::.writebacks       12137764                       # Total bandwidth to/from this memory (bytes/s)
system.mem_ctrls.bw_total::.cpu.inst            86140                       # Total bandwidth to/from this memory (bytes/s)
system.mem_ctrls.bw_total::.cpu.data         22629437                       # Total bandwidth to/from this memory (bytes/s)
system.mem_ctrls.bw_total::total             34853342                       # Total bandwidth to/from this memory (bytes/s)
system.mem_ctrls.priorityMinLatency      0.000000000000                       # per QoS priority minimum request to response latency (s)
system.mem_ctrls.priorityMaxLatency      0.000000000000                       # per QoS priority maximum request to response latency (s)
system.mem_ctrls.numReadWriteTurnArounds            0                       # Number of turnarounds from READ to WRITE
system.mem_ctrls.numWriteReadTurnArounds            0                       # Number of turnarounds from WRITE to READ
system.mem_ctrls.numStayReadState                   0                       # Number of times bus staying in READ state
system.mem_ctrls.numStayWriteState                  0                       # Number of times bus staying in WRITE state
system.mem_ctrls.readReqs                           0                       # Number of read requests accepted
system.mem_ctrls.writeReqs                          0                       # Number of write requests accepted
system.mem_ctrls.readBursts                         0                       # Number of DRAM read bursts, including those serviced by the write queue
system.mem_ctrls.writeBursts                        0                       # Number of DRAM write bursts, including those merged in the write queue
system.mem_ctrls.servicedByWrQ                      0                       # Number of DRAM read bursts serviced by the write queue
system.mem_ctrls.mergedWrBursts                     0                       # Number of DRAM write bursts merged with an existing one
system.mem_ctrls.neitherReadNorWriteReqs            0                       # Number of requests that are neither read nor write
system.mem_ctrls.perBankRdBursts::0                 0                       # Per bank write bursts
system.mem_ctrls.perBankRdBursts::1                 0                       # Per bank write bursts
system.mem_ctrls.perBankRdBursts::2                 0                       # Per bank write bursts
system.mem_ctrls.perBankRdBursts::3                 0                       # Per bank write bursts
system.mem_ctrls.perBankRdBursts::4                 0                       # Per bank write bursts
system.mem_ctrls.perBankRdBursts::5                 0                       # Per bank write bursts
system.mem_ctrls.perBankRdBursts::6                 0                       # Per bank write bursts
system.mem_ctrls.perBankRdBursts::7                 0                       # Per bank write bursts
system.mem_ctrls.perBankRdBursts::8                 0                       # Per bank write bursts
system.mem_ctrls.perBankRdBursts::9                 0                       # Per bank write bursts
system.mem_ctrls.perBankRdBursts::10                0                       # Per bank write bursts
system.mem_ctrls.perBankRdBursts::11                0                       # Per bank write bursts
system.mem_ctrls.perBankRdBursts::12                0                       # Per bank write bursts
system.mem_ctrls.perBankRdBursts::13                0                       # Per bank write bursts
system.mem_ctrls.perBankRdBursts::14                0                       # Per bank write bursts
system.mem_ctrls.perBankRdBursts::15                0                       # Per bank write bursts
system.mem_ctrls.perBankWrBursts::0                 0                       # Per bank write bursts
system.mem_ctrls.perBankWrBursts::1                 0                       # Per bank write bursts
system.mem_ctrls.perBankWrBursts::2                 0                       # Per bank write bursts
system.mem_ctrls.perBankWrBursts::3                 0                       # Per bank write bursts
system.mem_ctrls.perBankWrBursts::4                 0                       # Per bank write bursts
system.mem_ctrls.perBankWrBursts::5                 0                       # Per bank write bursts
system.mem_ctrls.perBankWrBursts::6                 0                       # Per bank write bursts
system.mem_ctrls.perBankWrBursts::7                 0                       # Per bank write bursts
system.mem_ctrls.perBankWrBursts::8                 0                       # Per bank write bursts
system.mem_ctrls.perBankWrBursts::9                 0                       # Per bank write bursts
system.mem_ctrls.perBankWrBursts::10                0                       # Per bank write bursts
system.mem_ctrls.perBankWrBursts::11                0                       # Per bank write bursts
system.mem_ctrls.perBankWrBursts::12                0                       # Per bank write bursts
system.mem_ctrls.perBankWrBursts::13                0                       # Per bank write bursts
system.mem_ctrls.perBankWrBursts::14                0                       # Per bank write bursts
system.mem_ctrls.perBankWrBursts::15                0                       # Per bank write bursts
system.mem_ctrls.avgRdQLen                       0.00                       # Average read queue length when enqueuing
system.mem_ctrls.avgWrQLen                       0.00                       # Average write queue length when enqueuing
system.mem_ctrls.totQLat                            0                       # Total ticks spent queuing
system.mem_ctrls.totBusLat                          0                       # Total ticks spent in databus transfers
system.mem_ctrls.totMemAccLat                       0                       # Total ticks spent from burst creation until serviced by the DRAM
system.mem_ctrls.avgQLat                          nan                       # Average queueing delay per DRAM burst
system.mem_ctrls.avgBusLat                        nan                       # Average bus latency per DRAM burst
system.mem_ctrls.avgMemAccLat                     nan                       # Average memory access latency per DRAM burst
system.mem_ctrls.numRdRetry                         0                       # Number of times read queue was full causing retry
system.mem_ctrls.numWrRetry                         0                       # Number of times write queue was full causing retry
system.mem_ctrls.readRowHits                        0                       # Number of row buffer hits during reads
system.mem_ctrls.writeRowHits                       0                       # Number of row buffer hits during writes
system.mem_ctrls.readRowHitRate                   nan                       # Row buffer hit rate for reads
system.mem_ctrls.writeRowHitRate                  nan                       # Row buffer hit rate for writes
system.mem_ctrls.readPktSize::0                     0                       # Read request sizes (log2)
system.mem_ctrls.readPktSize::1                     0                       # Read request sizes (log2)
system.mem_ctrls.readPktSize::2                     0                       # Read request sizes (log2)
system.mem_ctrls.readPktSize::3                     0                       # Read request sizes (log2)
system.mem_ctrls.readPktSize::4                     0                       # Read request sizes (log2)
system.mem_ctrls.readPktSize::5                     0                       # Read request sizes (log2)
system.mem_ctrls.readPktSize::6                     0                       # Read request sizes (log2)
system.mem_ctrls.writePktSize::0                    0                       # Write request sizes (log2)
system.mem_ctrls.writePktSize::1                    0                       # Write request sizes (log2)
system.mem_ctrls.writePktSize::2                    0                       # Write request sizes (log2)
system.mem_ctrls.writePktSize::3                    0                       # Write request sizes (log2)
system.mem_ctrls.writePktSize::4                    0                       # Write request sizes (log2)
system.mem_ctrls.writePktSize::5                    0                       # Write request sizes (log2)
system.mem_ctrls.writePktSize::6                    0                       # Write request sizes (log2)
system.mem_ctrls.rdQLenPdf::0                       0                       # What read queue length does an incoming req see
system.mem_ctrls.rdQLenPdf::1                       0                       # What read queue length does an incoming req see
system.mem_ctrls.rdQLenPdf::2                       0                       # What read queue length does an incoming req see
system.mem_ctrls.rdQLenPdf::3                       0                       # What read queue length does an incoming req see
system.mem_ctrls.rdQLenPdf::4                       0                       # What read queue length does an incoming req see
system.mem_ctrls.rdQLenPdf::5                       0                       # What read queue length does an incoming req see
system.mem_ctrls.rdQLenPdf::6                       0                       # What read queue length does an incoming req see
system.mem_ctrls.rdQLenPdf::7                       0                       # What read queue length does an incoming req see
system.mem_ctrls.rdQLenPdf::8                       0                       # What read queue length does an incoming req see
system.mem_ctrls.rdQLenPdf::9                       0                       # What read queue length does an incoming req see
system.mem_ctrls.rdQLenPdf::10                      0                       # What read queue length does an incoming req see
system.mem_ctrls.rdQLenPdf::11                      0                       # What read queue length does an incoming req see
system.mem_ctrls.rdQLenPdf::12                      0                       # What read queue length does an incoming req see
system.mem_ctrls.rdQLenPdf::13                      0                       # What read queue length does an incoming req see
system.mem_ctrls.rdQLenPdf::14                      0                       # What read queue length does an incoming req see
system.mem_ctrls.rdQLenPdf::15                      0                       # What read queue length does an incoming req see
system.mem_ctrls.rdQLenPdf::16                      0                       # What read queue length does an incoming req see
system.mem_ctrls.rdQLenPdf::17                      0                       # What read queue length does an incoming req see
system.mem_ctrls.rdQLenPdf::18                      0                       # What read queue length does an incoming req see
system.mem_ctrls.rdQLenPdf::19                      0                       # What read queue length does an incoming req see
system.mem_ctrls.rdQLenPdf::20                      0                       # What read queue length does an incoming req see
system.mem_ctrls.rdQLenPdf::21                      0                       # What read queue length does an incoming req see
system.mem_ctrls.rdQLenPdf::22                      0                       # What read queue length does an incoming req see
system.mem_ctrls.rdQLenPdf::23                      0                       # What read queue length does an incoming req see
system.mem_ctrls.rdQLenPdf::24                      0                       # What read queue length does an incoming req see
system.mem_ctrls.rdQLenPdf::25                      0                       # What read queue length does an incoming req see
system.mem_ctrls.rdQLenPdf::26                      0                       # What read queue length does an incoming req see
system.mem_ctrls.rdQLenPdf::27                      0                       # What read queue length does an incoming req see
system.mem_ctrls.rdQLenPdf::28                      0                       # What read queue length does an incoming req see
system.mem_ctrls.rdQLenPdf::29                      0                       # What read queue length does an incoming req see
system.mem_ctrls.rdQLenPdf::30                      0                       # What read queue length does an incoming req see
system.mem_ctrls.rdQLenPdf::31                      0                       # What read queue length does an incoming req see
system.mem_ctrls.wrQLenPdf::0                       0                       # What write queue length does an incoming req see
system.mem_ctrls.wrQLenPdf::1                       0                       # What write queue length does an incoming req see
system.mem_ctrls.wrQLenPdf::2                       0                       # What write queue length does an incoming req see
system.mem_ctrls.wrQLenPdf::3                       0                       # What write queue length does an incoming req see
system.mem_ctrls.wrQLenPdf::4                       0                       # What write queue length does an incoming req see
system.mem_ctrls.wrQLenPdf::5                       0                       # What write queue length does an incoming req see
system.mem_ctrls.wrQLenPdf::6                       0                       # What write queue length does an incoming req see
system.mem_ctrls.wrQLenPdf::7                       0                       # What write queue length does an incoming req see
system.mem_ctrls.wrQLenPdf::8                       0                       # What write queue length does an incoming req see
system.mem_ctrls.wrQLenPdf::9                       0                       # What write queue length does an incoming req see
system.mem_ctrls.wrQLenPdf::10                      0                       # What write queue length does an incoming req see
system.mem_ctrls.wrQLenPdf::11                      0                       # What write queue length does an incoming req see
system.mem_ctrls.wrQLenPdf::12                      0                       # What write queue length does an incoming req see
system.mem_ctrls.wrQLenPdf::13                      0                       # What write queue length does an incoming req see
system.mem_ctrls.wrQLenPdf::14                      0                       # What write queue length does an incoming req see
system.mem_ctrls.wrQLenPdf::15                      0                       # What write queue length does an incoming req see
system.mem_ctrls.wrQLenPdf::16                      0                       # What write queue length does an incoming req see
system.mem_ctrls.wrQLenPdf::17                      0                       # What write queue length does an incoming req see
system.mem_ctrls.wrQLenPdf::18                      0                       # What write queue length does an incoming req see
system.mem_ctrls.wrQLenPdf::19                      0                       # What write queue length does an incoming req see
system.mem_ctrls.wrQLenPdf::20                      0                       # What write queue length does an incoming req see
system.mem_ctrls.wrQLenPdf::21                      0                       # What write queue length does an incoming req see
system.mem_ctrls.wrQLenPdf::22                      0                       # What write queue length does an incoming req see
system.mem_ctrls.wrQLenPdf::23                      0                       # What write queue length does an incoming req see
system.mem_ctrls.wrQLenPdf::24                      0                       # What write queue length does an incoming req see
system.mem_ctrls.wrQLenPdf::25                      0                       # What write queue length does an incoming req see
system.mem_ctrls.wrQLenPdf::26                      0                       # What write queue length does an incoming req see
system.mem_ctrls.wrQLenPdf::27                      0                       # What write queue length does an incoming req see
system.mem_ctrls.wrQLenPdf::28                      0                       # What write queue length does an incoming req see
system.mem_ctrls.wrQLenPdf::29                      0                       # What write queue length does an incoming req see
system.mem_ctrls.wrQLenPdf::30                      0                       # What write queue length does an incoming req see
system.mem_ctrls.wrQLenPdf::31                      0                       # What write queue length does an incoming req see
system.mem_ctrls.wrQLenPdf::32                      0                       # What write queue length does an incoming req see
system.mem_ctrls.wrQLenPdf::33                      0                       # What write queue length does an incoming req see
system.mem_ctrls.wrQLenPdf::34                      0                       # What write queue length does an incoming req see
system.mem_ctrls.wrQLenPdf::35                      0                       # What write queue length does an incoming req see
system.mem_ctrls.wrQLenPdf::36                      0                       # What write queue length does an incoming req see
system.mem_ctrls.wrQLenPdf::37                      0                       # What write queue length does an incoming req see
system.mem_ctrls.wrQLenPdf::38                      0                       # What write queue length does an incoming req see
system.mem_ctrls.wrQLenPdf::39                      0                       # What write queue length does an incoming req see
system.mem_ctrls.wrQLenPdf::40                      0                       # What write queue length does an incoming req see
system.mem_ctrls.wrQLenPdf::41                      0                       # What write queue length does an incoming req see
system.mem_ctrls.wrQLenPdf::42                      0                       # What write queue length does an incoming req see
system.mem_ctrls.wrQLenPdf::43                      0                       # What write queue length does an incoming req see
system.mem_ctrls.wrQLenPdf::44                      0                       # What write queue length does an incoming req see
system.mem_ctrls.wrQLenPdf::45                      0                       # What write queue length does an incoming req see
system.mem_ctrls.wrQLenPdf::46                      0                       # What write queue length does an incoming req see
system.mem_ctrls.wrQLenPdf::47                      0                       # What write queue length does an incoming req see
system.mem_ctrls.wrQLenPdf::48                      0                       # What write queue length does an incoming req see
system.mem_ctrls.wrQLenPdf::49                      0                       # What write queue length does an incoming req see
system.mem_ctrls.wrQLenPdf::50                      0                       # What write queue length does an incoming req see
system.mem_ctrls.wrQLenPdf::51                      0                       # What write queue length does an incoming req see
system.mem_ctrls.wrQLenPdf::52                      0                       # What write queue length does an incoming req see
system.mem_ctrls.wrQLenPdf::53                      0                       # What write queue length does an incoming req see
system.mem_ctrls.wrQLenPdf::54                      0                       # What write queue length does an incoming req see
system.mem_ctrls.wrQLenPdf::55                      0                       # What write queue length does an incoming req see
system.mem_ctrls.wrQLenPdf::56                      0                       # What write queue length does an incoming req see
system.mem_ctrls.wrQLenPdf::57                      0                       # What write queue length does an incoming req see
system.mem_ctrls.wrQLenPdf::58                      0                       # What write queue length does an incoming req see
system.mem_ctrls.wrQLenPdf::59                      0                       # What write queue length does an incoming req see
system.mem_ctrls.wrQLenPdf::60                      0                       # What write queue length does an incoming req see
system.mem_ctrls.wrQLenPdf::61                      0                       # What write queue length does an incoming req see
system.mem_ctrls.wrQLenPdf::62                      0                       # What write queue length does an incoming req see
system.mem_ctrls.wrQLenPdf::63                      0                       # What write queue length does an incoming req see
system.mem_ctrls.bytesReadDRAM                      0                       # Total number of bytes read from DRAM
system.mem_ctrls.bytesReadWrQ                       0                       # Total number of bytes read from write queue
system.mem_ctrls.bytesWritten                       0                       # Total number of bytes written to DRAM
system.mem_ctrls.bytesReadSys                       0                       # Total read bytes from the system interface side
system.mem_ctrls.bytesWrittenSys                    0                       # Total written bytes from the system interface side
system.mem_ctrls.avgRdBW                         0.00                       # Average DRAM read bandwidth in MiByte/s
system.mem_ctrls.avgWrBW                         0.00                       # Average achieved write bandwidth in MiByte/s
system.mem_ctrls.avgRdBWSys                      0.00                       # Average system read bandwidth in MiByte/s
system.mem_ctrls.avgWrBWSys                      0.00                       # Average system write bandwidth in MiByte/s
system.mem_ctrls.peakBW                      12800.00                       # Theoretical peak bandwidth in MiByte/s
system.mem_ctrls.busUtil                         0.00                       # Data bus utilization in percentage
system.mem_ctrls.busUtilRead                     0.00                       # Data bus utilization in percentage for reads
system.mem_ctrls.busUtilWrite                    0.00                       # Data bus utilization in percentage for writes
system.mem_ctrls.totGap                             0                       # Total gap between requests
system.mem_ctrls.avgGap                           nan                       # Average gap between requests
system.mem_ctrls.pageHitRate                      nan                       # Row buffer hit rate, read and write combined
system.mem_ctrls.rank1.actEnergy                    0                       # Energy for activate commands per rank (pJ)
system.mem_ctrls.rank1.preEnergy                    0                       # Energy for precharge commands per rank (pJ)
system.mem_ctrls.rank1.readEnergy                   0                       # Energy for read commands per rank (pJ)
system.mem_ctrls.rank1.writeEnergy                  0                       # Energy for write commands per rank (pJ)
system.mem_ctrls.rank1.refreshEnergy                0                       # Energy for refresh commands per rank (pJ)
system.mem_ctrls.rank1.actBackEnergy                0                       # Energy for active background per rank (pJ)
system.mem_ctrls.rank1.preBackEnergy     902125612320                       # Energy for precharge background per rank (pJ)
system.mem_ctrls.rank1.actPowerDownEnergy            0                       # Energy for active power-down per rank (pJ)
system.mem_ctrls.rank1.prePowerDownEnergy            0                       # Energy for precharge power-down per rank (pJ)
system.mem_ctrls.rank1.selfRefreshEnergy            0                       # Energy for self refresh per rank (pJ)
system.mem_ctrls.rank1.totalEnergy       902125612320                       # Total energy per rank (pJ)
system.mem_ctrls.rank1.averagePower        384.000000                       # Core power per rank (mW)
system.mem_ctrls.rank1.totalIdleTime                0                       # Total Idle time Per DRAM Rank
system.mem_ctrls.rank1.memoryStateTime::IDLE 2349285447684                       # Time in different power states
system.mem_ctrls.rank1.memoryStateTime::REF            0                       # Time in different power states
system.mem_ctrls.rank1.memoryStateTime::SREF            0                       # Time in different power states
system.mem_ctrls.rank1.memoryStateTime::PRE_PDN            0                       # Time in different power states
system.mem_ctrls.rank1.memoryStateTime::ACT            0                       # Time in different power states
system.mem_ctrls.rank1.memoryStateTime::ACT_PDN            0                       # Time in different power states
system.mem_ctrls.rank0.actEnergy                    0                       # Energy for activate commands per rank (pJ)
system.mem_ctrls.rank0.preEnergy                    0                       # Energy for precharge commands per rank (pJ)
system.mem_ctrls.rank0.readEnergy                   0                       # Energy for read commands per rank (pJ)
system.mem_ctrls.rank0.writeEnergy                  0                       # Energy for write commands per rank (pJ)
system.mem_ctrls.rank0.refreshEnergy                0                       # Energy for refresh commands per rank (pJ)
system.mem_ctrls.rank0.actBackEnergy                0                       # Energy for active background per rank (pJ)
system.mem_ctrls.rank0.preBackEnergy     902125612320                       # Energy for precharge background per rank (pJ)
system.mem_ctrls.rank0.actPowerDownEnergy            0                       # Energy for active power-down per rank (pJ)
system.mem_ctrls.rank0.prePowerDownEnergy            0                       # Energy for precharge power-down per rank (pJ)
system.mem_ctrls.rank0.selfRefreshEnergy            0                       # Energy for self refresh per rank (pJ)
system.mem_ctrls.rank0.totalEnergy       902125612320                       # Total energy per rank (pJ)
system.mem_ctrls.rank0.averagePower        384.000000                       # Core power per rank (mW)
system.mem_ctrls.rank0.totalIdleTime                0                       # Total Idle time Per DRAM Rank
system.mem_ctrls.rank0.memoryStateTime::IDLE 2349285447684                       # Time in different power states
system.mem_ctrls.rank0.memoryStateTime::REF            0                       # Time in different power states
system.mem_ctrls.rank0.memoryStateTime::SREF            0                       # Time in different power states
system.mem_ctrls.rank0.memoryStateTime::PRE_PDN            0                       # Time in different power states
system.mem_ctrls.rank0.memoryStateTime::ACT            0                       # Time in different power states
system.mem_ctrls.rank0.memoryStateTime::ACT_PDN            0                       # Time in different power states
system.cpu_clk_domain.clock                       417                       # Clock period in ticks
system.cpu.numPwrStateTransitions                   1                       # Number of power state transitions
system.cpu.pwrStateResidencyTicks::ON    2349285447684                       # Cumulative time (in ticks) in various power states
system.cpu.icache.pwrStateResidencyTicks::UNDEFINED 2349285447684                       # Cumulative time (in ticks) in various power states
system.cpu.icache.demand_hits::.cpu.inst   3168437611                       # number of demand (read+write) hits
system.cpu.icache.demand_hits::total       3168437611                       # number of demand (read+write) hits
system.cpu.icache.overall_hits::.cpu.inst   3168437611                       # number of overall hits
system.cpu.icache.overall_hits::total      3168437611                       # number of overall hits
system.cpu.icache.demand_misses::.cpu.inst     18100328                       # number of demand (read+write) misses
system.cpu.icache.demand_misses::total       18100328                       # number of demand (read+write) misses
system.cpu.icache.overall_misses::.cpu.inst     18100328                       # number of overall misses
system.cpu.icache.overall_misses::total      18100328                       # number of overall misses
system.cpu.icache.demand_accesses::.cpu.inst   3186537939                       # number of demand (read+write) accesses
system.cpu.icache.demand_accesses::total   3186537939                       # number of demand (read+write) accesses
system.cpu.icache.overall_accesses::.cpu.inst   3186537939                       # number of overall (read+write) accesses
system.cpu.icache.overall_accesses::total   3186537939                       # number of overall (read+write) accesses
system.cpu.icache.demand_miss_rate::.cpu.inst     0.005680                       # miss rate for demand accesses
system.cpu.icache.demand_miss_rate::total     0.005680                       # miss rate for demand accesses
system.cpu.icache.overall_miss_rate::.cpu.inst     0.005680                       # miss rate for overall accesses
system.cpu.icache.overall_miss_rate::total     0.005680                       # miss rate for overall accesses
system.cpu.icache.blocked_cycles::no_mshrs            0                       # number of cycles access was blocked
system.cpu.icache.blocked_cycles::no_targets            0                       # number of cycles access was blocked
system.cpu.icache.blocked::no_mshrs                 0                       # number of cycles access was blocked
system.cpu.icache.blocked::no_targets               0                       # number of cycles access was blocked
system.cpu.icache.avg_blocked_cycles::no_mshrs          nan                       # average number of cycles each access was blocked
system.cpu.icache.avg_blocked_cycles::no_targets          nan                       # average number of cycles each access was blocked
system.cpu.icache.writebacks::.writebacks     18099816                       # number of writebacks
system.cpu.icache.writebacks::total          18099816                       # number of writebacks
system.cpu.icache.replacements               18099816                       # number of replacements
system.cpu.icache.ReadReq_hits::.cpu.inst   3168437611                       # number of ReadReq hits
system.cpu.icache.ReadReq_hits::total      3168437611                       # number of ReadReq hits
system.cpu.icache.ReadReq_misses::.cpu.inst     18100328                       # number of ReadReq misses
system.cpu.icache.ReadReq_misses::total      18100328                       # number of ReadReq misses
system.cpu.icache.ReadReq_accesses::.cpu.inst   3186537939                       # number of ReadReq accesses(hits+misses)
system.cpu.icache.ReadReq_accesses::total   3186537939                       # number of ReadReq accesses(hits+misses)
system.cpu.icache.ReadReq_miss_rate::.cpu.inst     0.005680                       # miss rate for ReadReq accesses
system.cpu.icache.ReadReq_miss_rate::total     0.005680                       # miss rate for ReadReq accesses
system.cpu.icache.tags.pwrStateResidencyTicks::UNDEFINED 2349285447684                       # Cumulative time (in ticks) in various power states
system.cpu.icache.tags.tagsinuse           511.954499                       # Cycle average of tags in use
system.cpu.icache.tags.total_refs          3186537939                       # Total number of references to valid blocks.
system.cpu.icache.tags.sampled_refs          18100328                       # Sample count of references to valid blocks.
system.cpu.icache.tags.avg_refs            176.048630                       # Average number of references to valid blocks.
system.cpu.icache.tags.warmup_cycle                 0                       # Cycle when the warmup percentage was hit.
system.cpu.icache.tags.occ_blocks::.cpu.inst   511.954499                       # Average occupied blocks per requestor
system.cpu.icache.tags.occ_percent::.cpu.inst     0.999911                       # Average percentage of cache occupancy
system.cpu.icache.tags.occ_percent::total     0.999911                       # Average percentage of cache occupancy
system.cpu.icache.tags.occ_task_id_blocks::1024          512                       # Occupied blocks per task id
system.cpu.icache.tags.age_task_id_blocks_1024::0          128                       # Occupied blocks per task id
system.cpu.icache.tags.age_task_id_blocks_1024::1          138                       # Occupied blocks per task id
system.cpu.icache.tags.age_task_id_blocks_1024::3           34                       # Occupied blocks per task id
system.cpu.icache.tags.age_task_id_blocks_1024::4          212                       # Occupied blocks per task id
system.cpu.icache.tags.occ_task_id_percent::1024            1                       # Percentage of cache occupancy per task id
system.cpu.icache.tags.tag_accesses        6391176206                       # Number of tag accesses
system.cpu.icache.tags.data_accesses       6391176206                       # Number of data accesses
system.cpu.dtb.walker.pwrStateResidencyTicks::UNDEFINED 2349285447684                       # Cumulative time (in ticks) in various power states
system.cpu.interrupts.clk_domain.clock           6672                       # Clock period in ticks
system.cpu.itb_walker_cache.pwrStateResidencyTicks::UNDEFINED 2349285447684                       # Cumulative time (in ticks) in various power states
system.cpu.itb_walker_cache.blocked_cycles::no_mshrs            0                       # number of cycles access was blocked
system.cpu.itb_walker_cache.blocked_cycles::no_targets            0                       # number of cycles access was blocked
system.cpu.itb_walker_cache.blocked::no_mshrs            0                       # number of cycles access was blocked
system.cpu.itb_walker_cache.blocked::no_targets            0                       # number of cycles access was blocked
system.cpu.itb_walker_cache.avg_blocked_cycles::no_mshrs          nan                       # average number of cycles each access was blocked
system.cpu.itb_walker_cache.avg_blocked_cycles::no_targets          nan                       # average number of cycles each access was blocked
system.cpu.itb_walker_cache.replacements            0                       # number of replacements
system.cpu.itb_walker_cache.tags.pwrStateResidencyTicks::UNDEFINED 2349285447684                       # Cumulative time (in ticks) in various power states
system.cpu.itb_walker_cache.tags.tagsinuse            0                       # Cycle average of tags in use
system.cpu.itb_walker_cache.tags.total_refs            0                       # Total number of references to valid blocks.
system.cpu.itb_walker_cache.tags.sampled_refs            0                       # Sample count of references to valid blocks.
system.cpu.itb_walker_cache.tags.avg_refs          nan                       # Average number of references to valid blocks.
system.cpu.itb_walker_cache.tags.warmup_cycle            0                       # Cycle when the warmup percentage was hit.
system.cpu.itb_walker_cache.tags.tag_accesses            0                       # Number of tag accesses
system.cpu.itb_walker_cache.tags.data_accesses            0                       # Number of data accesses
system.cpu.itb.walker.pwrStateResidencyTicks::UNDEFINED 2349285447684                       # Cumulative time (in ticks) in various power states
system.cpu.dtb_walker_cache.pwrStateResidencyTicks::UNDEFINED 2349285447684                       # Cumulative time (in ticks) in various power states
system.cpu.dtb_walker_cache.blocked_cycles::no_mshrs            0                       # number of cycles access was blocked
system.cpu.dtb_walker_cache.blocked_cycles::no_targets            0                       # number of cycles access was blocked
system.cpu.dtb_walker_cache.blocked::no_mshrs            0                       # number of cycles access was blocked
system.cpu.dtb_walker_cache.blocked::no_targets            0                       # number of cycles access was blocked
system.cpu.dtb_walker_cache.avg_blocked_cycles::no_mshrs          nan                       # average number of cycles each access was blocked
system.cpu.dtb_walker_cache.avg_blocked_cycles::no_targets          nan                       # average number of cycles each access was blocked
system.cpu.dtb_walker_cache.replacements            0                       # number of replacements
system.cpu.dtb_walker_cache.tags.pwrStateResidencyTicks::UNDEFINED 2349285447684                       # Cumulative time (in ticks) in various power states
system.cpu.dtb_walker_cache.tags.tagsinuse            0                       # Cycle average of tags in use
system.cpu.dtb_walker_cache.tags.total_refs            0                       # Total number of references to valid blocks.
system.cpu.dtb_walker_cache.tags.sampled_refs            0                       # Sample count of references to valid blocks.
system.cpu.dtb_walker_cache.tags.avg_refs          nan                       # Average number of references to valid blocks.
system.cpu.dtb_walker_cache.tags.warmup_cycle            0                       # Cycle when the warmup percentage was hit.
system.cpu.dtb_walker_cache.tags.tag_accesses            0                       # Number of tag accesses
system.cpu.dtb_walker_cache.tags.data_accesses            0                       # Number of data accesses
system.cpu.dcache.pwrStateResidencyTicks::UNDEFINED 2349285447684                       # Cumulative time (in ticks) in various power states
system.cpu.dcache.demand_hits::.cpu.data   1217758963                       # number of demand (read+write) hits
system.cpu.dcache.demand_hits::total       1217758963                       # number of demand (read+write) hits
system.cpu.dcache.overall_hits::.cpu.data   1217758963                       # number of overall hits
system.cpu.dcache.overall_hits::total      1217758963                       # number of overall hits
system.cpu.dcache.demand_misses::.cpu.data      4819913                       # number of demand (read+write) misses
system.cpu.dcache.demand_misses::total        4819913                       # number of demand (read+write) misses
system.cpu.dcache.overall_misses::.cpu.data      4819913                       # number of overall misses
system.cpu.dcache.overall_misses::total       4819913                       # number of overall misses
system.cpu.dcache.demand_accesses::.cpu.data   1222578876                       # number of demand (read+write) accesses
system.cpu.dcache.demand_accesses::total   1222578876                       # number of demand (read+write) accesses
system.cpu.dcache.overall_accesses::.cpu.data   1222578876                       # number of overall (read+write) accesses
system.cpu.dcache.overall_accesses::total   1222578876                       # number of overall (read+write) accesses
system.cpu.dcache.demand_miss_rate::.cpu.data     0.003942                       # miss rate for demand accesses
system.cpu.dcache.demand_miss_rate::total     0.003942                       # miss rate for demand accesses
system.cpu.dcache.overall_miss_rate::.cpu.data     0.003942                       # miss rate for overall accesses
system.cpu.dcache.overall_miss_rate::total     0.003942                       # miss rate for overall accesses
system.cpu.dcache.blocked_cycles::no_mshrs            0                       # number of cycles access was blocked
system.cpu.dcache.blocked_cycles::no_targets            0                       # number of cycles access was blocked
system.cpu.dcache.blocked::no_mshrs                 0                       # number of cycles access was blocked
system.cpu.dcache.blocked::no_targets               0                       # number of cycles access was blocked
system.cpu.dcache.avg_blocked_cycles::no_mshrs          nan                       # average number of cycles each access was blocked
system.cpu.dcache.avg_blocked_cycles::no_targets          nan                       # average number of cycles each access was blocked
system.cpu.dcache.writebacks::.writebacks      1577626                       # number of writebacks
system.cpu.dcache.writebacks::total           1577626                       # number of writebacks
system.cpu.dcache.replacements                4819401                       # number of replacements
system.cpu.dcache.ReadReq_hits::.cpu.data    761311235                       # number of ReadReq hits
system.cpu.dcache.ReadReq_hits::total       761311235                       # number of ReadReq hits
system.cpu.dcache.ReadReq_misses::.cpu.data      4387714                       # number of ReadReq misses
system.cpu.dcache.ReadReq_misses::total       4387714                       # number of ReadReq misses
system.cpu.dcache.ReadReq_accesses::.cpu.data    765698949                       # number of ReadReq accesses(hits+misses)
system.cpu.dcache.ReadReq_accesses::total    765698949                       # number of ReadReq accesses(hits+misses)
system.cpu.dcache.ReadReq_miss_rate::.cpu.data     0.005730                       # miss rate for ReadReq accesses
system.cpu.dcache.ReadReq_miss_rate::total     0.005730                       # miss rate for ReadReq accesses
system.cpu.dcache.WriteReq_hits::.cpu.data    456447728                       # number of WriteReq hits
system.cpu.dcache.WriteReq_hits::total      456447728                       # number of WriteReq hits
system.cpu.dcache.WriteReq_misses::.cpu.data       432199                       # number of WriteReq misses
system.cpu.dcache.WriteReq_misses::total       432199                       # number of WriteReq misses
system.cpu.dcache.WriteReq_accesses::.cpu.data    456879927                       # number of WriteReq accesses(hits+misses)
system.cpu.dcache.WriteReq_accesses::total    456879927                       # number of WriteReq accesses(hits+misses)
system.cpu.dcache.WriteReq_miss_rate::.cpu.data     0.000946                       # miss rate for WriteReq accesses
system.cpu.dcache.WriteReq_miss_rate::total     0.000946                       # miss rate for WriteReq accesses
system.cpu.dcache.tags.pwrStateResidencyTicks::UNDEFINED 2349285447684                       # Cumulative time (in ticks) in various power states
system.cpu.dcache.tags.tagsinuse           511.994808                       # Cycle average of tags in use
system.cpu.dcache.tags.total_refs          1222578876                       # Total number of references to valid blocks.
system.cpu.dcache.tags.sampled_refs           4819913                       # Sample count of references to valid blocks.
system.cpu.dcache.tags.avg_refs            253.651648                       # Average number of references to valid blocks.
system.cpu.dcache.tags.warmup_cycle              1251                       # Cycle when the warmup percentage was hit.
system.cpu.dcache.tags.occ_blocks::.cpu.data   511.994808                       # Average occupied blocks per requestor
system.cpu.dcache.tags.occ_percent::.cpu.data     0.999990                       # Average percentage of cache occupancy
system.cpu.dcache.tags.occ_percent::total     0.999990                       # Average percentage of cache occupancy
system.cpu.dcache.tags.occ_task_id_blocks::1024          512                       # Occupied blocks per task id
system.cpu.dcache.tags.age_task_id_blocks_1024::0          243                       # Occupied blocks per task id
system.cpu.dcache.tags.age_task_id_blocks_1024::1          266                       # Occupied blocks per task id
system.cpu.dcache.tags.age_task_id_blocks_1024::2            2                       # Occupied blocks per task id
system.cpu.dcache.tags.age_task_id_blocks_1024::3            1                       # Occupied blocks per task id
system.cpu.dcache.tags.occ_task_id_percent::1024            1                       # Percentage of cache occupancy per task id
system.cpu.dcache.tags.tag_accesses        2449977665                       # Number of tag accesses
system.cpu.dcache.tags.data_accesses       2449977665                       # Number of data accesses

---------- End Simulation Statistics   ----------
