
---------- Begin Simulation Statistics ----------
final_tick                               34405354907500                       # Number of ticks from beginning of simulation (restored from checkpoints and never reset)
host_inst_rate                                 194996                       # Simulator instruction rate (inst/s)
host_mem_usage                                4433520                       # Number of bytes of host memory used
host_op_rate                                   301161                       # Simulator op (including micro ops) rate (op/s)
host_seconds                                  1497.62                       # Real time elapsed on the host
host_tick_rate                            22973408335                       # Simulator tick rate (ticks/s)
sim_freq                                 1000000000000                       # Frequency of simulated ticks
sim_insts                                   292028599                       # Number of instructions simulated
sim_ops                                     451023540                       # Number of ops (including micro ops) simulated
sim_seconds                                 34.405355                       # Number of seconds simulated
sim_ticks                                34405354907500                       # Number of ticks simulated
system.cpu.Branches                          24089009                       # Number of branches fetched
system.cpu.committedInsts                   292028599                       # Number of instructions committed
system.cpu.committedOps                     451023540                       # Number of ops (including micro ops) committed
system.cpu.dtb.rdAccesses                   137985198                       # TLB accesses on read requests
system.cpu.dtb.rdMisses                         20448                       # TLB misses on read requests
system.cpu.dtb.wrAccesses                    63918473                       # TLB accesses on write requests
system.cpu.dtb.wrMisses                            59                       # TLB misses on write requests
system.cpu.idle_fraction                     0.000000                       # Percentage of idle cycles
system.cpu.itb.rdAccesses                           0                       # TLB accesses on read requests
system.cpu.itb.rdMisses                             0                       # TLB misses on read requests
system.cpu.itb.wrAccesses                   357705850                       # TLB accesses on write requests
system.cpu.itb.wrMisses                           260                       # TLB misses on write requests
system.cpu.not_idle_fraction                 1.000000                       # Percentage of non-idle cycles
system.cpu.numCycles                      68810709815                       # number of cpu cycles simulated
system.cpu.numWorkItemsCompleted                    0                       # number of work items this cpu completed
system.cpu.numWorkItemsStarted                      0                       # number of work items this cpu started
system.cpu.num_busy_cycles               68810709814.998001                       # Number of busy cycles
system.cpu.num_cc_register_reads             77182938                       # number of times the CC registers were read
system.cpu.num_cc_register_writes           179248140                       # number of times the CC registers were written
system.cpu.num_conditional_control_insts     12802377                       # number of instructions that are conditional controls
system.cpu.num_fp_alu_accesses                  74093                       # Number of float alu accesses
system.cpu.num_fp_insts                         74093                       # number of float instructions
system.cpu.num_fp_register_reads               102001                       # number of times the floating registers were read
system.cpu.num_fp_register_writes               54234                       # number of times the floating registers were written
system.cpu.num_func_calls                       18276                       # number of times a function call or return occured
system.cpu.num_idle_cycles                   0.002002                       # Number of idle cycles
system.cpu.num_int_alu_accesses             450969478                       # Number of integer alu accesses
system.cpu.num_int_insts                    450969478                       # number of integer instructions
system.cpu.num_int_register_reads          1061947526                       # number of times the integer registers were read
system.cpu.num_int_register_writes          363022091                       # number of times the integer registers were written
system.cpu.num_load_insts                   137985168                       # Number of load instructions
system.cpu.num_mem_refs                     201903631                       # number of memory refs
system.cpu.num_store_insts                   63918463                       # Number of store instructions
system.cpu.num_vec_alu_accesses                     0                       # Number of vector alu accesses
system.cpu.num_vec_insts                            0                       # number of vector instructions
system.cpu.num_vec_register_reads                   0                       # number of times the vector registers were read
system.cpu.num_vec_register_writes                  0                       # number of times the vector registers were written
system.cpu.op_class::No_OpClass                 19657      0.00%      0.00% # Class of executed instruction
system.cpu.op_class::IntAlu                 249023818     55.21%     55.22% # Class of executed instruction
system.cpu.op_class::IntMult                       37      0.00%     55.22% # Class of executed instruction
system.cpu.op_class::IntDiv                     34807      0.01%     55.23% # Class of executed instruction
system.cpu.op_class::FloatAdd                    2888      0.00%     55.23% # Class of executed instruction
system.cpu.op_class::FloatCmp                       0      0.00%     55.23% # Class of executed instruction
system.cpu.op_class::FloatCvt                    1328      0.00%     55.23% # Class of executed instruction
system.cpu.op_class::FloatMult                      0      0.00%     55.23% # Class of executed instruction
system.cpu.op_class::FloatMultAcc                   0      0.00%     55.23% # Class of executed instruction
system.cpu.op_class::FloatDiv                       0      0.00%     55.23% # Class of executed instruction
system.cpu.op_class::FloatMisc                      0      0.00%     55.23% # Class of executed instruction
system.cpu.op_class::FloatSqrt                      0      0.00%     55.23% # Class of executed instruction
system.cpu.op_class::SimdAdd                     6204      0.00%     55.23% # Class of executed instruction
system.cpu.op_class::SimdAddAcc                     0      0.00%     55.23% # Class of executed instruction
system.cpu.op_class::SimdAlu                    11267      0.00%     55.23% # Class of executed instruction
system.cpu.op_class::SimdCmp                        0      0.00%     55.23% # Class of executed instruction
system.cpu.op_class::SimdCvt                    12126      0.00%     55.23% # Class of executed instruction
system.cpu.op_class::SimdMisc                    6578      0.00%     55.23% # Class of executed instruction
system.cpu.op_class::SimdMult                       0      0.00%     55.23% # Class of executed instruction
system.cpu.op_class::SimdMultAcc                    0      0.00%     55.23% # Class of executed instruction
system.cpu.op_class::SimdShift                   1199      0.00%     55.23% # Class of executed instruction
system.cpu.op_class::SimdShiftAcc                   0      0.00%     55.23% # Class of executed instruction
system.cpu.op_class::SimdDiv                        0      0.00%     55.23% # Class of executed instruction
system.cpu.op_class::SimdSqrt                       0      0.00%     55.23% # Class of executed instruction
system.cpu.op_class::SimdFloatAdd                   0      0.00%     55.23% # Class of executed instruction
system.cpu.op_class::SimdFloatAlu                   0      0.00%     55.23% # Class of executed instruction
system.cpu.op_class::SimdFloatCmp                   0      0.00%     55.23% # Class of executed instruction
system.cpu.op_class::SimdFloatCvt                   0      0.00%     55.23% # Class of executed instruction
system.cpu.op_class::SimdFloatDiv                   0      0.00%     55.23% # Class of executed instruction
system.cpu.op_class::SimdFloatMisc                  0      0.00%     55.23% # Class of executed instruction
system.cpu.op_class::SimdFloatMult                  0      0.00%     55.23% # Class of executed instruction
system.cpu.op_class::SimdFloatMultAcc               0      0.00%     55.23% # Class of executed instruction
system.cpu.op_class::SimdFloatSqrt                  0      0.00%     55.23% # Class of executed instruction
system.cpu.op_class::SimdReduceAdd                  0      0.00%     55.23% # Class of executed instruction
system.cpu.op_class::SimdReduceAlu                  0      0.00%     55.23% # Class of executed instruction
system.cpu.op_class::SimdReduceCmp                  0      0.00%     55.23% # Class of executed instruction
system.cpu.op_class::SimdFloatReduceAdd             0      0.00%     55.23% # Class of executed instruction
system.cpu.op_class::SimdFloatReduceCmp             0      0.00%     55.23% # Class of executed instruction
system.cpu.op_class::SimdAes                        0      0.00%     55.23% # Class of executed instruction
system.cpu.op_class::SimdAesMix                     0      0.00%     55.23% # Class of executed instruction
system.cpu.op_class::SimdSha1Hash                   0      0.00%     55.23% # Class of executed instruction
system.cpu.op_class::SimdSha1Hash2                  0      0.00%     55.23% # Class of executed instruction
system.cpu.op_class::SimdSha256Hash                 0      0.00%     55.23% # Class of executed instruction
system.cpu.op_class::SimdSha256Hash2                0      0.00%     55.23% # Class of executed instruction
system.cpu.op_class::SimdShaSigma2                  0      0.00%     55.23% # Class of executed instruction
system.cpu.op_class::SimdShaSigma3                  0      0.00%     55.23% # Class of executed instruction
system.cpu.op_class::SimdPredAlu                    0      0.00%     55.23% # Class of executed instruction
system.cpu.op_class::MemRead                137965746     30.59%     85.82% # Class of executed instruction
system.cpu.op_class::MemWrite                63906134     14.17%     99.99% # Class of executed instruction
system.cpu.op_class::FloatMemRead               19422      0.00%    100.00% # Class of executed instruction
system.cpu.op_class::FloatMemWrite              12329      0.00%    100.00% # Class of executed instruction
system.cpu.op_class::IprAccess                      0      0.00%    100.00% # Class of executed instruction
system.cpu.op_class::InstPrefetch                   0      0.00%    100.00% # Class of executed instruction
system.cpu.op_class::total                  451023540                       # Class of executed instruction
system.cpu.workload.numSyscalls                    60                       # Number of system calls
system.membus.pwrStateResidencyTicks::UNDEFINED 34405354907500                       # Cumulative time (in ticks) in various power states
system.membus.trans_dist::ReadReq           495691048                       # Transaction distribution
system.membus.trans_dist::ReadResp          495691048                       # Transaction distribution
system.membus.trans_dist::WriteReq           63918473                       # Transaction distribution
system.membus.trans_dist::WriteResp          63918473                       # Transaction distribution
system.membus.pkt_count_system.cpu.icache_port::system.hmc_host.seriallink0.slave    715411700                       # Packet count per connected master and slave (bytes)
system.membus.pkt_count_system.cpu.icache_port::total    715411700                       # Packet count per connected master and slave (bytes)
system.membus.pkt_count_system.cpu.dcache_port::system.hmc_host.seriallink0.slave    383807342                       # Packet count per connected master and slave (bytes)
system.membus.pkt_count_system.cpu.dcache_port::system.hmc_host.seriallink1.slave     20000000                       # Packet count per connected master and slave (bytes)
system.membus.pkt_count_system.cpu.dcache_port::total    403807342                       # Packet count per connected master and slave (bytes)
system.membus.pkt_count::total             1119219042                       # Packet count per connected master and slave (bytes)
system.membus.pkt_size_system.cpu.icache_port::system.hmc_host.seriallink0.slave   2861646800                       # Cumulative packet size per connected master and slave (bytes)
system.membus.pkt_size_system.cpu.icache_port::total   2861646800                       # Cumulative packet size per connected master and slave (bytes)
system.membus.pkt_size_system.cpu.dcache_port::system.hmc_host.seriallink0.slave   1048863004                       # Cumulative packet size per connected master and slave (bytes)
system.membus.pkt_size_system.cpu.dcache_port::system.hmc_host.seriallink1.slave     80000000                       # Cumulative packet size per connected master and slave (bytes)
system.membus.pkt_size_system.cpu.dcache_port::total   1128863004                       # Cumulative packet size per connected master and slave (bytes)
system.membus.pkt_size::total              3990509804                       # Cumulative packet size per connected master and slave (bytes)
system.membus.reqLayer0.occupancy          6085279940                       # Layer occupancy (ticks)
system.membus.reqLayer0.utilization               0.0                       # Layer utilization (%)
system.membus.badaddr_responder.pwrStateResidencyTicks::UNDEFINED 34405354907500                       # Cumulative time (in ticks) in various power states
system.membus.respLayer1.occupancy         7154117000                       # Layer occupancy (ticks)
system.membus.respLayer1.utilization              0.0                       # Layer utilization (%)
system.membus.clk_domain.clock                     10                       # Clock period in ticks
system.membus.clk_domain.voltage_domain.voltage            1                       # Voltage in Volts
system.membus.respLayer2.occupancy         3398888690                       # Layer occupancy (ticks)
system.membus.respLayer2.utilization              0.0                       # Layer utilization (%)
system.membus.reqLayer1.occupancy           150000000                       # Layer occupancy (ticks)
system.membus.reqLayer1.utilization               0.0                       # Layer utilization (%)
system.voltage_domain.voltage                       1                       # Voltage in Volts
system.clk_domain.clock                          1000                       # Clock period in ticks
system.hmc_dev.buffers53.pwrStateResidencyTicks::UNDEFINED 34405354907500                       # Cumulative time (in ticks) in various power states
system.hmc_dev.buffers52.pwrStateResidencyTicks::UNDEFINED 34405354907500                       # Cumulative time (in ticks) in various power states
system.hmc_dev.buffers51.pwrStateResidencyTicks::UNDEFINED 34405354907500                       # Cumulative time (in ticks) in various power states
system.hmc_dev.buffers50.pwrStateResidencyTicks::UNDEFINED 34405354907500                       # Cumulative time (in ticks) in various power states
system.hmc_dev.buffers57.pwrStateResidencyTicks::UNDEFINED 34405354907500                       # Cumulative time (in ticks) in various power states
system.hmc_dev.buffers56.pwrStateResidencyTicks::UNDEFINED 34405354907500                       # Cumulative time (in ticks) in various power states
system.hmc_dev.buffers55.pwrStateResidencyTicks::UNDEFINED 34405354907500                       # Cumulative time (in ticks) in various power states
system.hmc_dev.buffers54.pwrStateResidencyTicks::UNDEFINED 34405354907500                       # Cumulative time (in ticks) in various power states
system.hmc_dev.buffers59.pwrStateResidencyTicks::UNDEFINED 34405354907500                       # Cumulative time (in ticks) in various power states
system.hmc_dev.buffers58.pwrStateResidencyTicks::UNDEFINED 34405354907500                       # Cumulative time (in ticks) in various power states
system.hmc_dev.buffers219.pwrStateResidencyTicks::UNDEFINED 34405354907500                       # Cumulative time (in ticks) in various power states
system.hmc_dev.buffers159.pwrStateResidencyTicks::UNDEFINED 34405354907500                       # Cumulative time (in ticks) in various power states
system.hmc_dev.buffers158.pwrStateResidencyTicks::UNDEFINED 34405354907500                       # Cumulative time (in ticks) in various power states
system.hmc_dev.buffers153.pwrStateResidencyTicks::UNDEFINED 34405354907500                       # Cumulative time (in ticks) in various power states
system.hmc_dev.buffers152.pwrStateResidencyTicks::UNDEFINED 34405354907500                       # Cumulative time (in ticks) in various power states
system.hmc_dev.buffers151.pwrStateResidencyTicks::UNDEFINED 34405354907500                       # Cumulative time (in ticks) in various power states
system.hmc_dev.buffers150.pwrStateResidencyTicks::UNDEFINED 34405354907500                       # Cumulative time (in ticks) in various power states
system.hmc_dev.buffers157.pwrStateResidencyTicks::UNDEFINED 34405354907500                       # Cumulative time (in ticks) in various power states
system.hmc_dev.buffers156.pwrStateResidencyTicks::UNDEFINED 34405354907500                       # Cumulative time (in ticks) in various power states
system.hmc_dev.buffers155.pwrStateResidencyTicks::UNDEFINED 34405354907500                       # Cumulative time (in ticks) in various power states
system.hmc_dev.buffers154.pwrStateResidencyTicks::UNDEFINED 34405354907500                       # Cumulative time (in ticks) in various power states
system.hmc_dev.buffers3.pwrStateResidencyTicks::UNDEFINED 34405354907500                       # Cumulative time (in ticks) in various power states
system.hmc_dev.buffers2.pwrStateResidencyTicks::UNDEFINED 34405354907500                       # Cumulative time (in ticks) in various power states
system.hmc_dev.buffers1.pwrStateResidencyTicks::UNDEFINED 34405354907500                       # Cumulative time (in ticks) in various power states
system.hmc_dev.buffers0.pwrStateResidencyTicks::UNDEFINED 34405354907500                       # Cumulative time (in ticks) in various power states
system.hmc_dev.buffers7.pwrStateResidencyTicks::UNDEFINED 34405354907500                       # Cumulative time (in ticks) in various power states
system.hmc_dev.buffers6.pwrStateResidencyTicks::UNDEFINED 34405354907500                       # Cumulative time (in ticks) in various power states
system.hmc_dev.buffers5.pwrStateResidencyTicks::UNDEFINED 34405354907500                       # Cumulative time (in ticks) in various power states
system.hmc_dev.buffers4.pwrStateResidencyTicks::UNDEFINED 34405354907500                       # Cumulative time (in ticks) in various power states
system.hmc_dev.buffers9.pwrStateResidencyTicks::UNDEFINED 34405354907500                       # Cumulative time (in ticks) in various power states
system.hmc_dev.buffers8.pwrStateResidencyTicks::UNDEFINED 34405354907500                       # Cumulative time (in ticks) in various power states
system.hmc_dev.buffers44.pwrStateResidencyTicks::UNDEFINED 34405354907500                       # Cumulative time (in ticks) in various power states
system.hmc_dev.buffers45.pwrStateResidencyTicks::UNDEFINED 34405354907500                       # Cumulative time (in ticks) in various power states
system.hmc_dev.buffers46.pwrStateResidencyTicks::UNDEFINED 34405354907500                       # Cumulative time (in ticks) in various power states
system.hmc_dev.buffers47.pwrStateResidencyTicks::UNDEFINED 34405354907500                       # Cumulative time (in ticks) in various power states
system.hmc_dev.buffers40.pwrStateResidencyTicks::UNDEFINED 34405354907500                       # Cumulative time (in ticks) in various power states
system.hmc_dev.buffers41.pwrStateResidencyTicks::UNDEFINED 34405354907500                       # Cumulative time (in ticks) in various power states
system.hmc_dev.buffers42.pwrStateResidencyTicks::UNDEFINED 34405354907500                       # Cumulative time (in ticks) in various power states
system.hmc_dev.buffers43.pwrStateResidencyTicks::UNDEFINED 34405354907500                       # Cumulative time (in ticks) in various power states
system.hmc_dev.buffers48.pwrStateResidencyTicks::UNDEFINED 34405354907500                       # Cumulative time (in ticks) in various power states
system.hmc_dev.buffers49.pwrStateResidencyTicks::UNDEFINED 34405354907500                       # Cumulative time (in ticks) in various power states
system.hmc_dev.buffers83.pwrStateResidencyTicks::UNDEFINED 34405354907500                       # Cumulative time (in ticks) in various power states
system.hmc_dev.xbar12.pwrStateResidencyTicks::UNDEFINED 34405354907500                       # Cumulative time (in ticks) in various power states
system.hmc_dev.xbar12.clk_domain.clock           1000                       # Clock period in ticks
system.hmc_dev.xbar12.clk_domain.voltage_domain.voltage            1                       # Voltage in Volts
system.hmc_dev.xbar13.pwrStateResidencyTicks::UNDEFINED 34405354907500                       # Cumulative time (in ticks) in various power states
system.hmc_dev.xbar13.clk_domain.clock           1000                       # Clock period in ticks
system.hmc_dev.xbar13.clk_domain.voltage_domain.voltage            1                       # Voltage in Volts
system.hmc_dev.xbar10.pwrStateResidencyTicks::UNDEFINED 34405354907500                       # Cumulative time (in ticks) in various power states
system.hmc_dev.xbar10.clk_domain.clock           1000                       # Clock period in ticks
system.hmc_dev.xbar10.clk_domain.voltage_domain.voltage            1                       # Voltage in Volts
system.hmc_dev.xbar11.pwrStateResidencyTicks::UNDEFINED 34405354907500                       # Cumulative time (in ticks) in various power states
system.hmc_dev.xbar11.clk_domain.clock           1000                       # Clock period in ticks
system.hmc_dev.xbar11.clk_domain.voltage_domain.voltage            1                       # Voltage in Volts
system.hmc_dev.xbar14.pwrStateResidencyTicks::UNDEFINED 34405354907500                       # Cumulative time (in ticks) in various power states
system.hmc_dev.xbar14.clk_domain.clock           1000                       # Clock period in ticks
system.hmc_dev.xbar14.clk_domain.voltage_domain.voltage            1                       # Voltage in Volts
system.hmc_dev.buffers128.pwrStateResidencyTicks::UNDEFINED 34405354907500                       # Cumulative time (in ticks) in various power states
system.hmc_dev.buffers129.pwrStateResidencyTicks::UNDEFINED 34405354907500                       # Cumulative time (in ticks) in various power states
system.hmc_dev.buffers126.pwrStateResidencyTicks::UNDEFINED 34405354907500                       # Cumulative time (in ticks) in various power states
system.hmc_dev.buffers127.pwrStateResidencyTicks::UNDEFINED 34405354907500                       # Cumulative time (in ticks) in various power states
system.hmc_dev.buffers124.pwrStateResidencyTicks::UNDEFINED 34405354907500                       # Cumulative time (in ticks) in various power states
system.hmc_dev.buffers125.pwrStateResidencyTicks::UNDEFINED 34405354907500                       # Cumulative time (in ticks) in various power states
system.hmc_dev.buffers122.pwrStateResidencyTicks::UNDEFINED 34405354907500                       # Cumulative time (in ticks) in various power states
system.hmc_dev.buffers123.pwrStateResidencyTicks::UNDEFINED 34405354907500                       # Cumulative time (in ticks) in various power states
system.hmc_dev.buffers120.pwrStateResidencyTicks::UNDEFINED 34405354907500                       # Cumulative time (in ticks) in various power states
system.hmc_dev.buffers121.pwrStateResidencyTicks::UNDEFINED 34405354907500                       # Cumulative time (in ticks) in various power states
system.hmc_dev.buffers88.pwrStateResidencyTicks::UNDEFINED 34405354907500                       # Cumulative time (in ticks) in various power states
system.hmc_dev.buffers89.pwrStateResidencyTicks::UNDEFINED 34405354907500                       # Cumulative time (in ticks) in various power states
system.hmc_dev.buffers91.pwrStateResidencyTicks::UNDEFINED 34405354907500                       # Cumulative time (in ticks) in various power states
system.hmc_dev.xbar5.pwrStateResidencyTicks::UNDEFINED 34405354907500                       # Cumulative time (in ticks) in various power states
system.hmc_dev.xbar5.trans_dist::ReadReq      1250000                       # Transaction distribution
system.hmc_dev.xbar5.trans_dist::ReadResp      1250000                       # Transaction distribution
system.hmc_dev.xbar5.trans_dist::WriteReq      1250000                       # Transaction distribution
system.hmc_dev.xbar5.trans_dist::WriteResp      1250000                       # Transaction distribution
system.hmc_dev.xbar5.pkt_count_system.hmc_dev.buffers064.master::system.hmc_dev.mem_ctrls05.port      5000000                       # Packet count per connected master and slave (bytes)
system.hmc_dev.xbar5.pkt_count_system.hmc_dev.buffers064.master::total      5000000                       # Packet count per connected master and slave (bytes)
system.hmc_dev.xbar5.pkt_count::total         5000000                       # Packet count per connected master and slave (bytes)
system.hmc_dev.xbar5.pkt_size_system.hmc_dev.buffers064.master::system.hmc_dev.mem_ctrls05.port     20000000                       # Cumulative packet size per connected master and slave (bytes)
system.hmc_dev.xbar5.pkt_size_system.hmc_dev.buffers064.master::total     20000000                       # Cumulative packet size per connected master and slave (bytes)
system.hmc_dev.xbar5.pkt_size::total         20000000                       # Cumulative packet size per connected master and slave (bytes)
system.hmc_dev.xbar5.clk_domain.clock            1000                       # Clock period in ticks
system.hmc_dev.xbar5.clk_domain.voltage_domain.voltage            1                       # Voltage in Volts
system.hmc_dev.xbar5.reqLayer15.occupancy   4502212800                       # Layer occupancy (ticks)
system.hmc_dev.xbar5.reqLayer15.utilization          0.0                       # Layer utilization (%)
system.hmc_dev.xbar5.respLayer4.occupancy   4617714800                       # Layer occupancy (ticks)
system.hmc_dev.xbar5.respLayer4.utilization          0.0                       # Layer utilization (%)
system.hmc_dev.buffers31.pwrStateResidencyTicks::UNDEFINED 34405354907500                       # Cumulative time (in ticks) in various power states
system.hmc_dev.buffers30.pwrStateResidencyTicks::UNDEFINED 34405354907500                       # Cumulative time (in ticks) in various power states
system.hmc_dev.buffers33.pwrStateResidencyTicks::UNDEFINED 34405354907500                       # Cumulative time (in ticks) in various power states
system.hmc_dev.buffers32.pwrStateResidencyTicks::UNDEFINED 34405354907500                       # Cumulative time (in ticks) in various power states
system.hmc_dev.buffers35.pwrStateResidencyTicks::UNDEFINED 34405354907500                       # Cumulative time (in ticks) in various power states
system.hmc_dev.buffers34.pwrStateResidencyTicks::UNDEFINED 34405354907500                       # Cumulative time (in ticks) in various power states
system.hmc_dev.buffers37.pwrStateResidencyTicks::UNDEFINED 34405354907500                       # Cumulative time (in ticks) in various power states
system.hmc_dev.buffers36.pwrStateResidencyTicks::UNDEFINED 34405354907500                       # Cumulative time (in ticks) in various power states
system.hmc_dev.buffers39.pwrStateResidencyTicks::UNDEFINED 34405354907500                       # Cumulative time (in ticks) in various power states
system.hmc_dev.buffers38.pwrStateResidencyTicks::UNDEFINED 34405354907500                       # Cumulative time (in ticks) in various power states
system.hmc_dev.xbar6.pwrStateResidencyTicks::UNDEFINED 34405354907500                       # Cumulative time (in ticks) in various power states
system.hmc_dev.xbar6.trans_dist::ReadReq      1250000                       # Transaction distribution
system.hmc_dev.xbar6.trans_dist::ReadResp      1250000                       # Transaction distribution
system.hmc_dev.xbar6.trans_dist::WriteReq      1250000                       # Transaction distribution
system.hmc_dev.xbar6.trans_dist::WriteResp      1250000                       # Transaction distribution
system.hmc_dev.xbar6.pkt_count_system.hmc_dev.buffers065.master::system.hmc_dev.mem_ctrls06.port      5000000                       # Packet count per connected master and slave (bytes)
system.hmc_dev.xbar6.pkt_count_system.hmc_dev.buffers065.master::total      5000000                       # Packet count per connected master and slave (bytes)
system.hmc_dev.xbar6.pkt_count::total         5000000                       # Packet count per connected master and slave (bytes)
system.hmc_dev.xbar6.pkt_size_system.hmc_dev.buffers065.master::system.hmc_dev.mem_ctrls06.port     20000000                       # Cumulative packet size per connected master and slave (bytes)
system.hmc_dev.xbar6.pkt_size_system.hmc_dev.buffers065.master::total     20000000                       # Cumulative packet size per connected master and slave (bytes)
system.hmc_dev.xbar6.pkt_size::total         20000000                       # Cumulative packet size per connected master and slave (bytes)
system.hmc_dev.xbar6.clk_domain.clock            1000                       # Clock period in ticks
system.hmc_dev.xbar6.clk_domain.voltage_domain.voltage            1                       # Voltage in Volts
system.hmc_dev.xbar6.reqLayer15.occupancy   4217487000                       # Layer occupancy (ticks)
system.hmc_dev.xbar6.reqLayer15.utilization          0.0                       # Layer utilization (%)
system.hmc_dev.xbar6.respLayer4.occupancy   4597921800                       # Layer occupancy (ticks)
system.hmc_dev.xbar6.respLayer4.utilization          0.0                       # Layer utilization (%)
system.hmc_dev.xbar3.pwrStateResidencyTicks::UNDEFINED 34405354907500                       # Cumulative time (in ticks) in various power states
system.hmc_dev.xbar3.trans_dist::ReadReq      1250000                       # Transaction distribution
system.hmc_dev.xbar3.trans_dist::ReadResp      1250000                       # Transaction distribution
system.hmc_dev.xbar3.trans_dist::WriteReq      1250000                       # Transaction distribution
system.hmc_dev.xbar3.trans_dist::WriteResp      1250000                       # Transaction distribution
system.hmc_dev.xbar3.pkt_count_system.hmc_dev.buffers002.master::system.hmc_dev.mem_ctrls03.port      5000000                       # Packet count per connected master and slave (bytes)
system.hmc_dev.xbar3.pkt_count_system.hmc_dev.buffers002.master::total      5000000                       # Packet count per connected master and slave (bytes)
system.hmc_dev.xbar3.pkt_count::total         5000000                       # Packet count per connected master and slave (bytes)
system.hmc_dev.xbar3.pkt_size_system.hmc_dev.buffers002.master::system.hmc_dev.mem_ctrls03.port     20000000                       # Cumulative packet size per connected master and slave (bytes)
system.hmc_dev.xbar3.pkt_size_system.hmc_dev.buffers002.master::total     20000000                       # Cumulative packet size per connected master and slave (bytes)
system.hmc_dev.xbar3.pkt_size::total         20000000                       # Cumulative packet size per connected master and slave (bytes)
system.hmc_dev.xbar3.clk_domain.clock            1000                       # Clock period in ticks
system.hmc_dev.xbar3.clk_domain.voltage_domain.voltage            1                       # Voltage in Volts
system.hmc_dev.xbar3.reqLayer15.occupancy   4320528800                       # Layer occupancy (ticks)
system.hmc_dev.xbar3.reqLayer15.utilization          0.0                       # Layer utilization (%)
system.hmc_dev.xbar3.respLayer0.occupancy   4625000000                       # Layer occupancy (ticks)
system.hmc_dev.xbar3.respLayer0.utilization          0.0                       # Layer utilization (%)
system.hmc_dev.buffers139.pwrStateResidencyTicks::UNDEFINED 34405354907500                       # Cumulative time (in ticks) in various power states
system.hmc_dev.buffers138.pwrStateResidencyTicks::UNDEFINED 34405354907500                       # Cumulative time (in ticks) in various power states
system.hmc_dev.buffers135.pwrStateResidencyTicks::UNDEFINED 34405354907500                       # Cumulative time (in ticks) in various power states
system.hmc_dev.buffers134.pwrStateResidencyTicks::UNDEFINED 34405354907500                       # Cumulative time (in ticks) in various power states
system.hmc_dev.buffers137.pwrStateResidencyTicks::UNDEFINED 34405354907500                       # Cumulative time (in ticks) in various power states
system.hmc_dev.buffers136.pwrStateResidencyTicks::UNDEFINED 34405354907500                       # Cumulative time (in ticks) in various power states
system.hmc_dev.buffers131.pwrStateResidencyTicks::UNDEFINED 34405354907500                       # Cumulative time (in ticks) in various power states
system.hmc_dev.buffers130.pwrStateResidencyTicks::UNDEFINED 34405354907500                       # Cumulative time (in ticks) in various power states
system.hmc_dev.buffers133.pwrStateResidencyTicks::UNDEFINED 34405354907500                       # Cumulative time (in ticks) in various power states
system.hmc_dev.buffers132.pwrStateResidencyTicks::UNDEFINED 34405354907500                       # Cumulative time (in ticks) in various power states
system.hmc_dev.buffers232.pwrStateResidencyTicks::UNDEFINED 34405354907500                       # Cumulative time (in ticks) in various power states
system.hmc_dev.buffers233.pwrStateResidencyTicks::UNDEFINED 34405354907500                       # Cumulative time (in ticks) in various power states
system.hmc_dev.buffers230.pwrStateResidencyTicks::UNDEFINED 34405354907500                       # Cumulative time (in ticks) in various power states
system.hmc_dev.buffers231.pwrStateResidencyTicks::UNDEFINED 34405354907500                       # Cumulative time (in ticks) in various power states
system.hmc_dev.buffers236.pwrStateResidencyTicks::UNDEFINED 34405354907500                       # Cumulative time (in ticks) in various power states
system.hmc_dev.buffers237.pwrStateResidencyTicks::UNDEFINED 34405354907500                       # Cumulative time (in ticks) in various power states
system.hmc_dev.buffers234.pwrStateResidencyTicks::UNDEFINED 34405354907500                       # Cumulative time (in ticks) in various power states
system.hmc_dev.buffers235.pwrStateResidencyTicks::UNDEFINED 34405354907500                       # Cumulative time (in ticks) in various power states
system.hmc_dev.buffers238.pwrStateResidencyTicks::UNDEFINED 34405354907500                       # Cumulative time (in ticks) in various power states
system.hmc_dev.buffers239.pwrStateResidencyTicks::UNDEFINED 34405354907500                       # Cumulative time (in ticks) in various power states
system.hmc_dev.mem_ctrls3.pwrStateResidencyTicks::UNDEFINED 34405354907500                       # Cumulative time (in ticks) in various power states
system.hmc_dev.mem_ctrls3.bytes_read::.cpu.data     10000000                       # Number of bytes read from this memory
system.hmc_dev.mem_ctrls3.bytes_read::total     10000000                       # Number of bytes read from this memory
system.hmc_dev.mem_ctrls3.bytes_written::.cpu.data     10000000                       # Number of bytes written to this memory
system.hmc_dev.mem_ctrls3.bytes_written::total     10000000                       # Number of bytes written to this memory
system.hmc_dev.mem_ctrls3.num_reads::.cpu.data      1250000                       # Number of read requests responded to by this memory
system.hmc_dev.mem_ctrls3.num_reads::total      1250000                       # Number of read requests responded to by this memory
system.hmc_dev.mem_ctrls3.num_writes::.cpu.data      1250000                       # Number of write requests responded to by this memory
system.hmc_dev.mem_ctrls3.num_writes::total      1250000                       # Number of write requests responded to by this memory
system.hmc_dev.mem_ctrls3.bw_read::.cpu.data       290652                       # Total read bandwidth from this memory (bytes/s)
system.hmc_dev.mem_ctrls3.bw_read::total       290652                       # Total read bandwidth from this memory (bytes/s)
system.hmc_dev.mem_ctrls3.bw_write::.cpu.data       290652                       # Write bandwidth from this memory (bytes/s)
system.hmc_dev.mem_ctrls3.bw_write::total       290652                       # Write bandwidth from this memory (bytes/s)
system.hmc_dev.mem_ctrls3.bw_total::.cpu.data       581305                       # Total bandwidth to/from this memory (bytes/s)
system.hmc_dev.mem_ctrls3.bw_total::total       581305                       # Total bandwidth to/from this memory (bytes/s)
system.hmc_dev.mem_ctrls3.avgPriority_.cpu.data::samples   1562501.00                       # Average QoS priority value for accepted requests
system.hmc_dev.mem_ctrls3.priorityMinLatency 0.000000023300                       # per QoS priority minimum request to response latency (s)
system.hmc_dev.mem_ctrls3.priorityMaxLatency 0.004814839300                       # per QoS priority maximum request to response latency (s)
system.hmc_dev.mem_ctrls3.numReadWriteTurnArounds        31249                       # Number of turnarounds from READ to WRITE
system.hmc_dev.mem_ctrls3.numWriteReadTurnArounds        31249                       # Number of turnarounds from WRITE to READ
system.hmc_dev.mem_ctrls3.numStayReadState     12588703                       # Number of times bus staying in READ state
system.hmc_dev.mem_ctrls3.numStayWriteState       281875                       # Number of times bus staying in WRITE state
system.hmc_dev.mem_ctrls3.readReqs            1250000                       # Number of read requests accepted
system.hmc_dev.mem_ctrls3.writeReqs           1250000                       # Number of write requests accepted
system.hmc_dev.mem_ctrls3.readBursts          1250000                       # Number of DRAM read bursts, including those serviced by the write queue
system.hmc_dev.mem_ctrls3.writeBursts         1250000                       # Number of DRAM write bursts, including those merged in the write queue
system.hmc_dev.mem_ctrls3.servicedByWrQ             0                       # Number of DRAM read bursts serviced by the write queue
system.hmc_dev.mem_ctrls3.mergedWrBursts       937499                       # Number of DRAM write bursts merged with an existing one
system.hmc_dev.mem_ctrls3.neitherReadNorWriteReqs            0                       # Number of requests that are neither read nor write
system.hmc_dev.mem_ctrls3.perBankRdBursts::0       625000                       # Per bank write bursts
system.hmc_dev.mem_ctrls3.perBankRdBursts::1       625000                       # Per bank write bursts
system.hmc_dev.mem_ctrls3.perBankWrBursts::0       156248                       # Per bank write bursts
system.hmc_dev.mem_ctrls3.perBankWrBursts::1       156242                       # Per bank write bursts
system.hmc_dev.mem_ctrls3.avgRdQLen              0.99                       # Average read queue length when enqueuing
system.hmc_dev.mem_ctrls3.avgWrQLen             12.42                       # Average write queue length when enqueuing
system.hmc_dev.mem_ctrls3.totQLat         12750000000                       # Total ticks spent queuing
system.hmc_dev.mem_ctrls3.totBusLat        4000000000                       # Total ticks spent in databus transfers
system.hmc_dev.mem_ctrls3.totMemAccLat    29125000000                       # Total ticks spent from burst creation until serviced by the DRAM
system.hmc_dev.mem_ctrls3.avgQLat            10200.00                       # Average queueing delay per DRAM burst
system.hmc_dev.mem_ctrls3.avgBusLat           3200.00                       # Average bus latency per DRAM burst
system.hmc_dev.mem_ctrls3.avgMemAccLat       23300.00                       # Average memory access latency per DRAM burst
system.hmc_dev.mem_ctrls3.numRdRetry                0                       # Number of times read queue was full causing retry
system.hmc_dev.mem_ctrls3.numWrRetry                0                       # Number of times write queue was full causing retry
system.hmc_dev.mem_ctrls3.readRowHits               0                       # Number of row buffer hits during reads
system.hmc_dev.mem_ctrls3.writeRowHits         241546                       # Number of row buffer hits during writes
system.hmc_dev.mem_ctrls3.readRowHitRate         0.00                       # Row buffer hit rate for reads
system.hmc_dev.mem_ctrls3.writeRowHitRate        77.29                       # Row buffer hit rate for writes
system.hmc_dev.mem_ctrls3.readPktSize::0            0                       # Read request sizes (log2)
system.hmc_dev.mem_ctrls3.readPktSize::1            0                       # Read request sizes (log2)
system.hmc_dev.mem_ctrls3.readPktSize::2            0                       # Read request sizes (log2)
system.hmc_dev.mem_ctrls3.readPktSize::3      1250000                       # Read request sizes (log2)
system.hmc_dev.mem_ctrls3.readPktSize::4            0                       # Read request sizes (log2)
system.hmc_dev.mem_ctrls3.readPktSize::5            0                       # Read request sizes (log2)
system.hmc_dev.mem_ctrls3.writePktSize::0            0                       # Write request sizes (log2)
system.hmc_dev.mem_ctrls3.writePktSize::1            0                       # Write request sizes (log2)
system.hmc_dev.mem_ctrls3.writePktSize::2            0                       # Write request sizes (log2)
system.hmc_dev.mem_ctrls3.writePktSize::3      1250000                       # Write request sizes (log2)
system.hmc_dev.mem_ctrls3.writePktSize::4            0                       # Write request sizes (log2)
system.hmc_dev.mem_ctrls3.writePktSize::5            0                       # Write request sizes (log2)
system.hmc_dev.mem_ctrls3.rdQLenPdf::0        1250000                       # What read queue length does an incoming req see
system.hmc_dev.mem_ctrls3.rdQLenPdf::1              0                       # What read queue length does an incoming req see
system.hmc_dev.mem_ctrls3.rdQLenPdf::2              0                       # What read queue length does an incoming req see
system.hmc_dev.mem_ctrls3.rdQLenPdf::3              0                       # What read queue length does an incoming req see
system.hmc_dev.mem_ctrls3.rdQLenPdf::4              0                       # What read queue length does an incoming req see
system.hmc_dev.mem_ctrls3.rdQLenPdf::5              0                       # What read queue length does an incoming req see
system.hmc_dev.mem_ctrls3.rdQLenPdf::6              0                       # What read queue length does an incoming req see
system.hmc_dev.mem_ctrls3.rdQLenPdf::7              0                       # What read queue length does an incoming req see
system.hmc_dev.mem_ctrls3.rdQLenPdf::8              0                       # What read queue length does an incoming req see
system.hmc_dev.mem_ctrls3.rdQLenPdf::9              0                       # What read queue length does an incoming req see
system.hmc_dev.mem_ctrls3.rdQLenPdf::10             0                       # What read queue length does an incoming req see
system.hmc_dev.mem_ctrls3.rdQLenPdf::11             0                       # What read queue length does an incoming req see
system.hmc_dev.mem_ctrls3.rdQLenPdf::12             0                       # What read queue length does an incoming req see
system.hmc_dev.mem_ctrls3.rdQLenPdf::13             0                       # What read queue length does an incoming req see
system.hmc_dev.mem_ctrls3.rdQLenPdf::14             0                       # What read queue length does an incoming req see
system.hmc_dev.mem_ctrls3.rdQLenPdf::15             0                       # What read queue length does an incoming req see
system.hmc_dev.mem_ctrls3.rdQLenPdf::16             0                       # What read queue length does an incoming req see
system.hmc_dev.mem_ctrls3.rdQLenPdf::17             0                       # What read queue length does an incoming req see
system.hmc_dev.mem_ctrls3.rdQLenPdf::18             0                       # What read queue length does an incoming req see
system.hmc_dev.mem_ctrls3.rdQLenPdf::19             0                       # What read queue length does an incoming req see
system.hmc_dev.mem_ctrls3.rdQLenPdf::20             0                       # What read queue length does an incoming req see
system.hmc_dev.mem_ctrls3.rdQLenPdf::21             0                       # What read queue length does an incoming req see
system.hmc_dev.mem_ctrls3.rdQLenPdf::22             0                       # What read queue length does an incoming req see
system.hmc_dev.mem_ctrls3.rdQLenPdf::23             0                       # What read queue length does an incoming req see
system.hmc_dev.mem_ctrls3.rdQLenPdf::24             0                       # What read queue length does an incoming req see
system.hmc_dev.mem_ctrls3.rdQLenPdf::25             0                       # What read queue length does an incoming req see
system.hmc_dev.mem_ctrls3.rdQLenPdf::26             0                       # What read queue length does an incoming req see
system.hmc_dev.mem_ctrls3.rdQLenPdf::27             0                       # What read queue length does an incoming req see
system.hmc_dev.mem_ctrls3.rdQLenPdf::28             0                       # What read queue length does an incoming req see
system.hmc_dev.mem_ctrls3.rdQLenPdf::29             0                       # What read queue length does an incoming req see
system.hmc_dev.mem_ctrls3.rdQLenPdf::30             0                       # What read queue length does an incoming req see
system.hmc_dev.mem_ctrls3.rdQLenPdf::31             0                       # What read queue length does an incoming req see
system.hmc_dev.mem_ctrls3.wrQLenPdf::0              1                       # What write queue length does an incoming req see
system.hmc_dev.mem_ctrls3.wrQLenPdf::1              1                       # What write queue length does an incoming req see
system.hmc_dev.mem_ctrls3.wrQLenPdf::2              1                       # What write queue length does an incoming req see
system.hmc_dev.mem_ctrls3.wrQLenPdf::3              1                       # What write queue length does an incoming req see
system.hmc_dev.mem_ctrls3.wrQLenPdf::4              1                       # What write queue length does an incoming req see
system.hmc_dev.mem_ctrls3.wrQLenPdf::5              1                       # What write queue length does an incoming req see
system.hmc_dev.mem_ctrls3.wrQLenPdf::6              1                       # What write queue length does an incoming req see
system.hmc_dev.mem_ctrls3.wrQLenPdf::7          31250                       # What write queue length does an incoming req see
system.hmc_dev.mem_ctrls3.wrQLenPdf::8          31250                       # What write queue length does an incoming req see
system.hmc_dev.mem_ctrls3.wrQLenPdf::9          31250                       # What write queue length does an incoming req see
system.hmc_dev.mem_ctrls3.wrQLenPdf::10         31250                       # What write queue length does an incoming req see
system.hmc_dev.mem_ctrls3.wrQLenPdf::11         31249                       # What write queue length does an incoming req see
system.hmc_dev.mem_ctrls3.wrQLenPdf::12         31249                       # What write queue length does an incoming req see
system.hmc_dev.mem_ctrls3.wrQLenPdf::13         31249                       # What write queue length does an incoming req see
system.hmc_dev.mem_ctrls3.wrQLenPdf::14         31249                       # What write queue length does an incoming req see
system.hmc_dev.mem_ctrls3.wrQLenPdf::15         31249                       # What write queue length does an incoming req see
system.hmc_dev.mem_ctrls3.wrQLenPdf::16         31249                       # What write queue length does an incoming req see
system.hmc_dev.mem_ctrls3.wrQLenPdf::17             0                       # What write queue length does an incoming req see
system.hmc_dev.mem_ctrls3.wrQLenPdf::18             0                       # What write queue length does an incoming req see
system.hmc_dev.mem_ctrls3.wrQLenPdf::19             0                       # What write queue length does an incoming req see
system.hmc_dev.mem_ctrls3.wrQLenPdf::20             0                       # What write queue length does an incoming req see
system.hmc_dev.mem_ctrls3.wrQLenPdf::21             0                       # What write queue length does an incoming req see
system.hmc_dev.mem_ctrls3.wrQLenPdf::22             0                       # What write queue length does an incoming req see
system.hmc_dev.mem_ctrls3.wrQLenPdf::23             0                       # What write queue length does an incoming req see
system.hmc_dev.mem_ctrls3.wrQLenPdf::24             0                       # What write queue length does an incoming req see
system.hmc_dev.mem_ctrls3.wrQLenPdf::25             0                       # What write queue length does an incoming req see
system.hmc_dev.mem_ctrls3.wrQLenPdf::26             0                       # What write queue length does an incoming req see
system.hmc_dev.mem_ctrls3.wrQLenPdf::27             0                       # What write queue length does an incoming req see
system.hmc_dev.mem_ctrls3.wrQLenPdf::28             0                       # What write queue length does an incoming req see
system.hmc_dev.mem_ctrls3.wrQLenPdf::29             0                       # What write queue length does an incoming req see
system.hmc_dev.mem_ctrls3.wrQLenPdf::30             0                       # What write queue length does an incoming req see
system.hmc_dev.mem_ctrls3.wrQLenPdf::31             0                       # What write queue length does an incoming req see
system.hmc_dev.mem_ctrls3.bytesPerActivate::samples      1320944                       # Bytes accessed per row activation
system.hmc_dev.mem_ctrls3.bytesPerActivate::mean    37.851476                       # Bytes accessed per row activation
system.hmc_dev.mem_ctrls3.bytesPerActivate::gmean    34.217317                       # Bytes accessed per row activation
system.hmc_dev.mem_ctrls3.bytesPerActivate::stdev    31.558679                       # Bytes accessed per row activation
system.hmc_dev.mem_ctrls3.bytesPerActivate::32-63      1259080     95.32%     95.32% # Bytes accessed per row activation
system.hmc_dev.mem_ctrls3.bytesPerActivate::64-95        22169      1.68%     96.99% # Bytes accessed per row activation
system.hmc_dev.mem_ctrls3.bytesPerActivate::96-127          634      0.05%     97.04% # Bytes accessed per row activation
system.hmc_dev.mem_ctrls3.bytesPerActivate::128-159         7812      0.59%     97.63% # Bytes accessed per row activation
system.hmc_dev.mem_ctrls3.bytesPerActivate::192-223         7812      0.59%     98.23% # Bytes accessed per row activation
system.hmc_dev.mem_ctrls3.bytesPerActivate::224-255         8446      0.64%     98.87% # Bytes accessed per row activation
system.hmc_dev.mem_ctrls3.bytesPerActivate::256-287        14991      1.13%    100.00% # Bytes accessed per row activation
system.hmc_dev.mem_ctrls3.bytesPerActivate::total      1320944                       # Bytes accessed per row activation
system.hmc_dev.mem_ctrls3.rdPerTurnAround::samples        31249                       # Reads before turning the bus around for writes
system.hmc_dev.mem_ctrls3.rdPerTurnAround::mean    40.000736                       # Reads before turning the bus around for writes
system.hmc_dev.mem_ctrls3.rdPerTurnAround::gmean    40.000581                       # Reads before turning the bus around for writes
system.hmc_dev.mem_ctrls3.rdPerTurnAround::stdev     0.130110                       # Reads before turning the bus around for writes
system.hmc_dev.mem_ctrls3.rdPerTurnAround::40-41        31248    100.00%    100.00% # Reads before turning the bus around for writes
system.hmc_dev.mem_ctrls3.rdPerTurnAround::62-63            1      0.00%    100.00% # Reads before turning the bus around for writes
system.hmc_dev.mem_ctrls3.rdPerTurnAround::total        31249                       # Reads before turning the bus around for writes
system.hmc_dev.mem_ctrls3.wrPerTurnAround::samples        31249                       # Writes before turning the bus around for reads
system.hmc_dev.mem_ctrls3.wrPerTurnAround::mean           10                       # Writes before turning the bus around for reads
system.hmc_dev.mem_ctrls3.wrPerTurnAround::gmean    10.000000                       # Writes before turning the bus around for reads
system.hmc_dev.mem_ctrls3.wrPerTurnAround::10        31249    100.00%    100.00% # Writes before turning the bus around for reads
system.hmc_dev.mem_ctrls3.wrPerTurnAround::total        31249                       # Writes before turning the bus around for reads
system.hmc_dev.mem_ctrls3.bytesReadDRAM      40000000                       # Total number of bytes read from DRAM
system.hmc_dev.mem_ctrls3.bytesReadWrQ              0                       # Total number of bytes read from write queue
system.hmc_dev.mem_ctrls3.bytesWritten        9999680                       # Total number of bytes written to DRAM
system.hmc_dev.mem_ctrls3.bytesReadSys       10000000                       # Total read bytes from the system interface side
system.hmc_dev.mem_ctrls3.bytesWrittenSys     10000000                       # Total written bytes from the system interface side
system.hmc_dev.mem_ctrls3.avgRdBW                1.16                       # Average DRAM read bandwidth in MiByte/s
system.hmc_dev.mem_ctrls3.avgWrBW                0.29                       # Average achieved write bandwidth in MiByte/s
system.hmc_dev.mem_ctrls3.avgRdBWSys             0.29                       # Average system read bandwidth in MiByte/s
system.hmc_dev.mem_ctrls3.avgWrBWSys             0.29                       # Average system write bandwidth in MiByte/s
system.hmc_dev.mem_ctrls3.peakBW             10000.00                       # Theoretical peak bandwidth in MiByte/s
system.hmc_dev.mem_ctrls3.busUtil                0.01                       # Data bus utilization in percentage
system.hmc_dev.mem_ctrls3.busUtilRead            0.01                       # Data bus utilization in percentage for reads
system.hmc_dev.mem_ctrls3.busUtilWrite           0.00                       # Data bus utilization in percentage for writes
system.hmc_dev.mem_ctrls3.totGap         34189097080600                       # Total gap between requests
system.hmc_dev.mem_ctrls3.avgGap          13675638.83                       # Average gap between requests
system.hmc_dev.mem_ctrls3.masterReadBytes::.cpu.data     10000000                       # Per-master bytes read from memory
system.hmc_dev.mem_ctrls3.masterWriteBytes::.cpu.data      2499920                       # Per-master bytes write to memory
system.hmc_dev.mem_ctrls3.masterReadRate::.cpu.data 290652.429741979111                       # Per-master bytes read from memory rate (Bytes/sec)
system.hmc_dev.mem_ctrls3.masterWriteRate::.cpu.data 72660.782216056847                       # Per-master bytes write to memory rate (Bytes/sec)
system.hmc_dev.mem_ctrls3.masterReadAccesses::.cpu.data      1250000                       # Per-master read serviced memory accesses
system.hmc_dev.mem_ctrls3.masterWriteAccesses::.cpu.data      1250000                       # Per-master write serviced memory accesses
system.hmc_dev.mem_ctrls3.masterReadTotalLat::.cpu.data  29125000000                       # Per-master read total memory access latency
system.hmc_dev.mem_ctrls3.masterWriteTotalLat::.cpu.data 393172298412200                       # Per-master write total memory access latency
system.hmc_dev.mem_ctrls3.masterReadAvgLat::.cpu.data     23300.00                       # Per-master read average memory access latency
system.hmc_dev.mem_ctrls3.masterWriteAvgLat::.cpu.data 314537838.73                       # Per-master write average memory access latency
system.hmc_dev.mem_ctrls3.pageHitRate           15.46                       # Row buffer hit rate, read and write combined
system.hmc_dev.mem_ctrls3.rank0.actEnergy 727575955.192125                       # Energy for activate commands per rank (pJ)
system.hmc_dev.mem_ctrls3.rank0.preEnergy    364580544                       # Energy for precharge commands per rank (pJ)
system.hmc_dev.mem_ctrls3.rank0.readEnergy 714000000.006878                       # Energy for read commands per rank (pJ)
system.hmc_dev.mem_ctrls3.rank0.writeEnergy    130495824                       # Energy for write commands per rank (pJ)
system.hmc_dev.mem_ctrls3.rank0.refreshEnergy 154631825768.943695                       # Energy for refresh commands per rank (pJ)
system.hmc_dev.mem_ctrls3.rank0.actBackEnergy 29955065861.548775                       # Energy for active background per rank (pJ)
system.hmc_dev.mem_ctrls3.rank0.preBackEnergy 1626231716970.803223                       # Energy for precharge background per rank (pJ)
system.hmc_dev.mem_ctrls3.rank0.actPowerDownEnergy            0                       # Energy for active power-down per rank (pJ)
system.hmc_dev.mem_ctrls3.rank0.prePowerDownEnergy            0                       # Energy for precharge power-down per rank (pJ)
system.hmc_dev.mem_ctrls3.rank0.selfRefreshEnergy            0                       # Energy for self refresh per rank (pJ)
system.hmc_dev.mem_ctrls3.rank0.totalEnergy 1812755260857.922852                       # Total energy per rank (pJ)
system.hmc_dev.mem_ctrls3.rank0.averagePower    52.688172                       # Core power per rank (mW)
system.hmc_dev.mem_ctrls3.rank0.totalIdleTime            0                       # Total Idle time Per DRAM Rank
system.hmc_dev.mem_ctrls3.rank0.memoryStateTime::IDLE 33801005441700                       # Time in different power states
system.hmc_dev.mem_ctrls3.rank0.memoryStateTime::REF 521520883000                       # Time in different power states
system.hmc_dev.mem_ctrls3.rank0.memoryStateTime::SREF            0                       # Time in different power states
system.hmc_dev.mem_ctrls3.rank0.memoryStateTime::PRE_PDN            0                       # Time in different power states
system.hmc_dev.mem_ctrls3.rank0.memoryStateTime::ACT  82828582800                       # Time in different power states
system.hmc_dev.mem_ctrls3.rank0.memoryStateTime::ACT_PDN            0                       # Time in different power states
system.hmc_dev.mem_ctrls13.pwrStateResidencyTicks::UNDEFINED 34405354907500                       # Cumulative time (in ticks) in various power states
system.hmc_dev.mem_ctrls13.priorityMinLatency 0.000000000000                       # per QoS priority minimum request to response latency (s)
system.hmc_dev.mem_ctrls13.priorityMaxLatency 0.000000000000                       # per QoS priority maximum request to response latency (s)
system.hmc_dev.mem_ctrls13.numReadWriteTurnArounds            0                       # Number of turnarounds from READ to WRITE
system.hmc_dev.mem_ctrls13.numWriteReadTurnArounds            0                       # Number of turnarounds from WRITE to READ
system.hmc_dev.mem_ctrls13.numStayReadState      8839337                       # Number of times bus staying in READ state
system.hmc_dev.mem_ctrls13.numStayWriteState            0                       # Number of times bus staying in WRITE state
system.hmc_dev.mem_ctrls13.readReqs                 0                       # Number of read requests accepted
system.hmc_dev.mem_ctrls13.writeReqs                0                       # Number of write requests accepted
system.hmc_dev.mem_ctrls13.readBursts               0                       # Number of DRAM read bursts, including those serviced by the write queue
system.hmc_dev.mem_ctrls13.writeBursts              0                       # Number of DRAM write bursts, including those merged in the write queue
system.hmc_dev.mem_ctrls13.servicedByWrQ            0                       # Number of DRAM read bursts serviced by the write queue
system.hmc_dev.mem_ctrls13.mergedWrBursts            0                       # Number of DRAM write bursts merged with an existing one
system.hmc_dev.mem_ctrls13.neitherReadNorWriteReqs            0                       # Number of requests that are neither read nor write
system.hmc_dev.mem_ctrls13.perBankRdBursts::0            0                       # Per bank write bursts
system.hmc_dev.mem_ctrls13.perBankRdBursts::1            0                       # Per bank write bursts
system.hmc_dev.mem_ctrls13.perBankWrBursts::0            0                       # Per bank write bursts
system.hmc_dev.mem_ctrls13.perBankWrBursts::1            0                       # Per bank write bursts
system.hmc_dev.mem_ctrls13.avgRdQLen             0.00                       # Average read queue length when enqueuing
system.hmc_dev.mem_ctrls13.avgWrQLen             0.00                       # Average write queue length when enqueuing
system.hmc_dev.mem_ctrls13.totQLat                  0                       # Total ticks spent queuing
system.hmc_dev.mem_ctrls13.totBusLat                0                       # Total ticks spent in databus transfers
system.hmc_dev.mem_ctrls13.totMemAccLat             0                       # Total ticks spent from burst creation until serviced by the DRAM
system.hmc_dev.mem_ctrls13.avgQLat                nan                       # Average queueing delay per DRAM burst
system.hmc_dev.mem_ctrls13.avgBusLat              nan                       # Average bus latency per DRAM burst
system.hmc_dev.mem_ctrls13.avgMemAccLat           nan                       # Average memory access latency per DRAM burst
system.hmc_dev.mem_ctrls13.numRdRetry               0                       # Number of times read queue was full causing retry
system.hmc_dev.mem_ctrls13.numWrRetry               0                       # Number of times write queue was full causing retry
system.hmc_dev.mem_ctrls13.readRowHits              0                       # Number of row buffer hits during reads
system.hmc_dev.mem_ctrls13.writeRowHits             0                       # Number of row buffer hits during writes
system.hmc_dev.mem_ctrls13.readRowHitRate          nan                       # Row buffer hit rate for reads
system.hmc_dev.mem_ctrls13.writeRowHitRate          nan                       # Row buffer hit rate for writes
system.hmc_dev.mem_ctrls13.readPktSize::0            0                       # Read request sizes (log2)
system.hmc_dev.mem_ctrls13.readPktSize::1            0                       # Read request sizes (log2)
system.hmc_dev.mem_ctrls13.readPktSize::2            0                       # Read request sizes (log2)
system.hmc_dev.mem_ctrls13.readPktSize::3            0                       # Read request sizes (log2)
system.hmc_dev.mem_ctrls13.readPktSize::4            0                       # Read request sizes (log2)
system.hmc_dev.mem_ctrls13.readPktSize::5            0                       # Read request sizes (log2)
system.hmc_dev.mem_ctrls13.writePktSize::0            0                       # Write request sizes (log2)
system.hmc_dev.mem_ctrls13.writePktSize::1            0                       # Write request sizes (log2)
system.hmc_dev.mem_ctrls13.writePktSize::2            0                       # Write request sizes (log2)
system.hmc_dev.mem_ctrls13.writePktSize::3            0                       # Write request sizes (log2)
system.hmc_dev.mem_ctrls13.writePktSize::4            0                       # Write request sizes (log2)
system.hmc_dev.mem_ctrls13.writePktSize::5            0                       # Write request sizes (log2)
system.hmc_dev.mem_ctrls13.rdQLenPdf::0             0                       # What read queue length does an incoming req see
system.hmc_dev.mem_ctrls13.rdQLenPdf::1             0                       # What read queue length does an incoming req see
system.hmc_dev.mem_ctrls13.rdQLenPdf::2             0                       # What read queue length does an incoming req see
system.hmc_dev.mem_ctrls13.rdQLenPdf::3             0                       # What read queue length does an incoming req see
system.hmc_dev.mem_ctrls13.rdQLenPdf::4             0                       # What read queue length does an incoming req see
system.hmc_dev.mem_ctrls13.rdQLenPdf::5             0                       # What read queue length does an incoming req see
system.hmc_dev.mem_ctrls13.rdQLenPdf::6             0                       # What read queue length does an incoming req see
system.hmc_dev.mem_ctrls13.rdQLenPdf::7             0                       # What read queue length does an incoming req see
system.hmc_dev.mem_ctrls13.rdQLenPdf::8             0                       # What read queue length does an incoming req see
system.hmc_dev.mem_ctrls13.rdQLenPdf::9             0                       # What read queue length does an incoming req see
system.hmc_dev.mem_ctrls13.rdQLenPdf::10            0                       # What read queue length does an incoming req see
system.hmc_dev.mem_ctrls13.rdQLenPdf::11            0                       # What read queue length does an incoming req see
system.hmc_dev.mem_ctrls13.rdQLenPdf::12            0                       # What read queue length does an incoming req see
system.hmc_dev.mem_ctrls13.rdQLenPdf::13            0                       # What read queue length does an incoming req see
system.hmc_dev.mem_ctrls13.rdQLenPdf::14            0                       # What read queue length does an incoming req see
system.hmc_dev.mem_ctrls13.rdQLenPdf::15            0                       # What read queue length does an incoming req see
system.hmc_dev.mem_ctrls13.rdQLenPdf::16            0                       # What read queue length does an incoming req see
system.hmc_dev.mem_ctrls13.rdQLenPdf::17            0                       # What read queue length does an incoming req see
system.hmc_dev.mem_ctrls13.rdQLenPdf::18            0                       # What read queue length does an incoming req see
system.hmc_dev.mem_ctrls13.rdQLenPdf::19            0                       # What read queue length does an incoming req see
system.hmc_dev.mem_ctrls13.rdQLenPdf::20            0                       # What read queue length does an incoming req see
system.hmc_dev.mem_ctrls13.rdQLenPdf::21            0                       # What read queue length does an incoming req see
system.hmc_dev.mem_ctrls13.rdQLenPdf::22            0                       # What read queue length does an incoming req see
system.hmc_dev.mem_ctrls13.rdQLenPdf::23            0                       # What read queue length does an incoming req see
system.hmc_dev.mem_ctrls13.rdQLenPdf::24            0                       # What read queue length does an incoming req see
system.hmc_dev.mem_ctrls13.rdQLenPdf::25            0                       # What read queue length does an incoming req see
system.hmc_dev.mem_ctrls13.rdQLenPdf::26            0                       # What read queue length does an incoming req see
system.hmc_dev.mem_ctrls13.rdQLenPdf::27            0                       # What read queue length does an incoming req see
system.hmc_dev.mem_ctrls13.rdQLenPdf::28            0                       # What read queue length does an incoming req see
system.hmc_dev.mem_ctrls13.rdQLenPdf::29            0                       # What read queue length does an incoming req see
system.hmc_dev.mem_ctrls13.rdQLenPdf::30            0                       # What read queue length does an incoming req see
system.hmc_dev.mem_ctrls13.rdQLenPdf::31            0                       # What read queue length does an incoming req see
system.hmc_dev.mem_ctrls13.wrQLenPdf::0             0                       # What write queue length does an incoming req see
system.hmc_dev.mem_ctrls13.wrQLenPdf::1             0                       # What write queue length does an incoming req see
system.hmc_dev.mem_ctrls13.wrQLenPdf::2             0                       # What write queue length does an incoming req see
system.hmc_dev.mem_ctrls13.wrQLenPdf::3             0                       # What write queue length does an incoming req see
system.hmc_dev.mem_ctrls13.wrQLenPdf::4             0                       # What write queue length does an incoming req see
system.hmc_dev.mem_ctrls13.wrQLenPdf::5             0                       # What write queue length does an incoming req see
system.hmc_dev.mem_ctrls13.wrQLenPdf::6             0                       # What write queue length does an incoming req see
system.hmc_dev.mem_ctrls13.wrQLenPdf::7             0                       # What write queue length does an incoming req see
system.hmc_dev.mem_ctrls13.wrQLenPdf::8             0                       # What write queue length does an incoming req see
system.hmc_dev.mem_ctrls13.wrQLenPdf::9             0                       # What write queue length does an incoming req see
system.hmc_dev.mem_ctrls13.wrQLenPdf::10            0                       # What write queue length does an incoming req see
system.hmc_dev.mem_ctrls13.wrQLenPdf::11            0                       # What write queue length does an incoming req see
system.hmc_dev.mem_ctrls13.wrQLenPdf::12            0                       # What write queue length does an incoming req see
system.hmc_dev.mem_ctrls13.wrQLenPdf::13            0                       # What write queue length does an incoming req see
system.hmc_dev.mem_ctrls13.wrQLenPdf::14            0                       # What write queue length does an incoming req see
system.hmc_dev.mem_ctrls13.wrQLenPdf::15            0                       # What write queue length does an incoming req see
system.hmc_dev.mem_ctrls13.wrQLenPdf::16            0                       # What write queue length does an incoming req see
system.hmc_dev.mem_ctrls13.wrQLenPdf::17            0                       # What write queue length does an incoming req see
system.hmc_dev.mem_ctrls13.wrQLenPdf::18            0                       # What write queue length does an incoming req see
system.hmc_dev.mem_ctrls13.wrQLenPdf::19            0                       # What write queue length does an incoming req see
system.hmc_dev.mem_ctrls13.wrQLenPdf::20            0                       # What write queue length does an incoming req see
system.hmc_dev.mem_ctrls13.wrQLenPdf::21            0                       # What write queue length does an incoming req see
system.hmc_dev.mem_ctrls13.wrQLenPdf::22            0                       # What write queue length does an incoming req see
system.hmc_dev.mem_ctrls13.wrQLenPdf::23            0                       # What write queue length does an incoming req see
system.hmc_dev.mem_ctrls13.wrQLenPdf::24            0                       # What write queue length does an incoming req see
system.hmc_dev.mem_ctrls13.wrQLenPdf::25            0                       # What write queue length does an incoming req see
system.hmc_dev.mem_ctrls13.wrQLenPdf::26            0                       # What write queue length does an incoming req see
system.hmc_dev.mem_ctrls13.wrQLenPdf::27            0                       # What write queue length does an incoming req see
system.hmc_dev.mem_ctrls13.wrQLenPdf::28            0                       # What write queue length does an incoming req see
system.hmc_dev.mem_ctrls13.wrQLenPdf::29            0                       # What write queue length does an incoming req see
system.hmc_dev.mem_ctrls13.wrQLenPdf::30            0                       # What write queue length does an incoming req see
system.hmc_dev.mem_ctrls13.wrQLenPdf::31            0                       # What write queue length does an incoming req see
system.hmc_dev.mem_ctrls13.bytesReadDRAM            0                       # Total number of bytes read from DRAM
system.hmc_dev.mem_ctrls13.bytesReadWrQ             0                       # Total number of bytes read from write queue
system.hmc_dev.mem_ctrls13.bytesWritten             0                       # Total number of bytes written to DRAM
system.hmc_dev.mem_ctrls13.bytesReadSys             0                       # Total read bytes from the system interface side
system.hmc_dev.mem_ctrls13.bytesWrittenSys            0                       # Total written bytes from the system interface side
system.hmc_dev.mem_ctrls13.avgRdBW               0.00                       # Average DRAM read bandwidth in MiByte/s
system.hmc_dev.mem_ctrls13.avgWrBW               0.00                       # Average achieved write bandwidth in MiByte/s
system.hmc_dev.mem_ctrls13.avgRdBWSys            0.00                       # Average system read bandwidth in MiByte/s
system.hmc_dev.mem_ctrls13.avgWrBWSys            0.00                       # Average system write bandwidth in MiByte/s
system.hmc_dev.mem_ctrls13.peakBW            10000.00                       # Theoretical peak bandwidth in MiByte/s
system.hmc_dev.mem_ctrls13.busUtil               0.00                       # Data bus utilization in percentage
system.hmc_dev.mem_ctrls13.busUtilRead           0.00                       # Data bus utilization in percentage for reads
system.hmc_dev.mem_ctrls13.busUtilWrite          0.00                       # Data bus utilization in percentage for writes
system.hmc_dev.mem_ctrls13.totGap                   0                       # Total gap between requests
system.hmc_dev.mem_ctrls13.avgGap                 nan                       # Average gap between requests
system.hmc_dev.mem_ctrls13.pageHitRate            nan                       # Row buffer hit rate, read and write combined
system.hmc_dev.mem_ctrls13.rank0.actEnergy            0                       # Energy for activate commands per rank (pJ)
system.hmc_dev.mem_ctrls13.rank0.preEnergy            0                       # Energy for precharge commands per rank (pJ)
system.hmc_dev.mem_ctrls13.rank0.readEnergy            0                       # Energy for read commands per rank (pJ)
system.hmc_dev.mem_ctrls13.rank0.writeEnergy            0                       # Energy for write commands per rank (pJ)
system.hmc_dev.mem_ctrls13.rank0.refreshEnergy 154631825768.943695                       # Energy for refresh commands per rank (pJ)
system.hmc_dev.mem_ctrls13.rank0.actBackEnergy 25796721103.720161                       # Energy for active background per rank (pJ)
system.hmc_dev.mem_ctrls13.rank0.preBackEnergy 1629733480959.127441                       # Energy for precharge background per rank (pJ)
system.hmc_dev.mem_ctrls13.rank0.actPowerDownEnergy            0                       # Energy for active power-down per rank (pJ)
system.hmc_dev.mem_ctrls13.rank0.prePowerDownEnergy            0                       # Energy for precharge power-down per rank (pJ)
system.hmc_dev.mem_ctrls13.rank0.selfRefreshEnergy            0                       # Energy for self refresh per rank (pJ)
system.hmc_dev.mem_ctrls13.rank0.totalEnergy 1810162027766.847168                       # Total energy per rank (pJ)
system.hmc_dev.mem_ctrls13.rank0.averagePower    52.612799                       # Core power per rank (mW)
system.hmc_dev.mem_ctrls13.rank0.totalIdleTime            0                       # Total Idle time Per DRAM Rank
system.hmc_dev.mem_ctrls13.rank0.memoryStateTime::IDLE 33883834024500                       # Time in different power states
system.hmc_dev.mem_ctrls13.rank0.memoryStateTime::REF 521520883000                       # Time in different power states
system.hmc_dev.mem_ctrls13.rank0.memoryStateTime::SREF            0                       # Time in different power states
system.hmc_dev.mem_ctrls13.rank0.memoryStateTime::PRE_PDN            0                       # Time in different power states
system.hmc_dev.mem_ctrls13.rank0.memoryStateTime::ACT            0                       # Time in different power states
system.hmc_dev.mem_ctrls13.rank0.memoryStateTime::ACT_PDN            0                       # Time in different power states
system.hmc_dev.buffers22.pwrStateResidencyTicks::UNDEFINED 34405354907500                       # Cumulative time (in ticks) in various power states
system.hmc_dev.buffers23.pwrStateResidencyTicks::UNDEFINED 34405354907500                       # Cumulative time (in ticks) in various power states
system.hmc_dev.buffers20.pwrStateResidencyTicks::UNDEFINED 34405354907500                       # Cumulative time (in ticks) in various power states
system.hmc_dev.buffers21.pwrStateResidencyTicks::UNDEFINED 34405354907500                       # Cumulative time (in ticks) in various power states
system.hmc_dev.buffers26.pwrStateResidencyTicks::UNDEFINED 34405354907500                       # Cumulative time (in ticks) in various power states
system.hmc_dev.buffers27.pwrStateResidencyTicks::UNDEFINED 34405354907500                       # Cumulative time (in ticks) in various power states
system.hmc_dev.buffers24.pwrStateResidencyTicks::UNDEFINED 34405354907500                       # Cumulative time (in ticks) in various power states
system.hmc_dev.buffers25.pwrStateResidencyTicks::UNDEFINED 34405354907500                       # Cumulative time (in ticks) in various power states
system.hmc_dev.mem_ctrls10.pwrStateResidencyTicks::UNDEFINED 34405354907500                       # Cumulative time (in ticks) in various power states
system.hmc_dev.mem_ctrls10.priorityMinLatency 0.000000000000                       # per QoS priority minimum request to response latency (s)
system.hmc_dev.mem_ctrls10.priorityMaxLatency 0.000000000000                       # per QoS priority maximum request to response latency (s)
system.hmc_dev.mem_ctrls10.numReadWriteTurnArounds            0                       # Number of turnarounds from READ to WRITE
system.hmc_dev.mem_ctrls10.numWriteReadTurnArounds            0                       # Number of turnarounds from WRITE to READ
system.hmc_dev.mem_ctrls10.numStayReadState      8839337                       # Number of times bus staying in READ state
system.hmc_dev.mem_ctrls10.numStayWriteState            0                       # Number of times bus staying in WRITE state
[...]
system.hmc_dev.mem_ctrls1.bytesPerActivate::stdev    31.648708                       # Bytes accessed per row activation
system.hmc_dev.mem_ctrls1.bytesPerActivate::32-63      1257812     95.27%     95.27% # Bytes accessed per row activation
system.hmc_dev.mem_ctrls1.bytesPerActivate::64-95        23437      1.78%     97.04% # Bytes accessed per row activation
system.hmc_dev.mem_ctrls1.bytesPerActivate::128-159         7812      0.59%     97.63% # Bytes accessed per row activation
system.hmc_dev.mem_ctrls1.bytesPerActivate::192-223         7812      0.59%     98.22% # Bytes accessed per row activation
system.hmc_dev.mem_ctrls1.bytesPerActivate::224-255         7812      0.59%     98.82% # Bytes accessed per row activation
system.hmc_dev.mem_ctrls1.bytesPerActivate::256-287        15625      1.18%    100.00% # Bytes accessed per row activation
system.hmc_dev.mem_ctrls1.bytesPerActivate::total      1320310                       # Bytes accessed per row activation
system.hmc_dev.mem_ctrls1.rdPerTurnAround::samples        31249                       # Reads before turning the bus around for writes
system.hmc_dev.mem_ctrls1.rdPerTurnAround::mean    40.000736                       # Reads before turning the bus around for writes
system.hmc_dev.mem_ctrls1.rdPerTurnAround::gmean    40.000581                       # Reads before turning the bus around for writes
system.hmc_dev.mem_ctrls1.rdPerTurnAround::stdev     0.130110                       # Reads before turning the bus around for writes
system.hmc_dev.mem_ctrls1.rdPerTurnAround::40-41        31248    100.00%    100.00% # Reads before turning the bus around for writes
system.hmc_dev.mem_ctrls1.rdPerTurnAround::62-63            1      0.00%    100.00% # Reads before turning the bus around for writes
system.hmc_dev.mem_ctrls1.rdPerTurnAround::total        31249                       # Reads before turning the bus around for writes
system.hmc_dev.mem_ctrls1.wrPerTurnAround::samples        31249                       # Writes before turning the bus around for reads
system.hmc_dev.mem_ctrls1.wrPerTurnAround::mean           10                       # Writes before turning the bus around for reads
system.hmc_dev.mem_ctrls1.wrPerTurnAround::gmean    10.000000                       # Writes before turning the bus around for reads
system.hmc_dev.mem_ctrls1.wrPerTurnAround::10        31249    100.00%    100.00% # Writes before turning the bus around for reads
system.hmc_dev.mem_ctrls1.wrPerTurnAround::total        31249                       # Writes before turning the bus around for reads
system.hmc_dev.mem_ctrls1.bytesReadDRAM      40000000                       # Total number of bytes read from DRAM
system.hmc_dev.mem_ctrls1.bytesReadWrQ              0                       # Total number of bytes read from write queue
system.hmc_dev.mem_ctrls1.bytesWritten        9999680                       # Total number of bytes written to DRAM
system.hmc_dev.mem_ctrls1.bytesReadSys       10000000                       # Total read bytes from the system interface side
system.hmc_dev.mem_ctrls1.bytesWrittenSys     10000000                       # Total written bytes from the system interface side
system.hmc_dev.mem_ctrls1.avgRdBW                1.16                       # Average DRAM read bandwidth in MiByte/s
system.hmc_dev.mem_ctrls1.avgWrBW                0.29                       # Average achieved write bandwidth in MiByte/s
system.hmc_dev.mem_ctrls1.avgRdBWSys             0.29                       # Average system read bandwidth in MiByte/s
system.hmc_dev.mem_ctrls1.avgWrBWSys             0.29                       # Average system write bandwidth in MiByte/s
system.hmc_dev.mem_ctrls1.peakBW             10000.00                       # Theoretical peak bandwidth in MiByte/s
system.hmc_dev.mem_ctrls1.busUtil                0.01                       # Data bus utilization in percentage
system.hmc_dev.mem_ctrls1.busUtilRead            0.01                       # Data bus utilization in percentage for reads
system.hmc_dev.mem_ctrls1.busUtilWrite           0.00                       # Data bus utilization in percentage for writes
system.hmc_dev.mem_ctrls1.totGap         34189097065400                       # Total gap between requests
system.hmc_dev.mem_ctrls1.avgGap          13675638.83                       # Average gap between requests
system.hmc_dev.mem_ctrls1.masterReadBytes::.cpu.data     10000000                       # Per-master bytes read from memory
system.hmc_dev.mem_ctrls1.masterWriteBytes::.cpu.data      2499920                       # Per-master bytes write to memory
system.hmc_dev.mem_ctrls1.masterReadRate::.cpu.data 290652.429741979111                       # Per-master bytes read from memory rate (Bytes/sec)
system.hmc_dev.mem_ctrls1.masterWriteRate::.cpu.data 72660.782216056847                       # Per-master bytes write to memory rate (Bytes/sec)
system.hmc_dev.mem_ctrls1.masterReadAccesses::.cpu.data      1250000                       # Per-master read serviced memory accesses
system.hmc_dev.mem_ctrls1.masterWriteAccesses::.cpu.data      1250000                       # Per-master write serviced memory accesses
system.hmc_dev.mem_ctrls1.masterReadTotalLat::.cpu.data  30297550700                       # Per-master read total memory access latency
system.hmc_dev.mem_ctrls1.masterWriteTotalLat::.cpu.data 393172402627400                       # Per-master write total memory access latency
system.hmc_dev.mem_ctrls1.masterReadAvgLat::.cpu.data     24238.04                       # Per-master read average memory access latency
system.hmc_dev.mem_ctrls1.masterWriteAvgLat::.cpu.data 314537922.10                       # Per-master write average memory access latency
system.hmc_dev.mem_ctrls1.pageHitRate           15.50                       # Row buffer hit rate, read and write combined
system.hmc_dev.mem_ctrls1.rank0.actEnergy 727226747.992191                       # Energy for activate commands per rank (pJ)
system.hmc_dev.mem_ctrls1.rank0.preEnergy    364405560                       # Energy for precharge commands per rank (pJ)
system.hmc_dev.mem_ctrls1.rank0.readEnergy 714000000.006878                       # Energy for read commands per rank (pJ)
system.hmc_dev.mem_ctrls1.rank0.writeEnergy    130495824                       # Energy for write commands per rank (pJ)
system.hmc_dev.mem_ctrls1.rank0.refreshEnergy 154631825768.943695                       # Energy for refresh commands per rank (pJ)
system.hmc_dev.mem_ctrls1.rank0.actBackEnergy 30244679988.805058                       # Energy for active background per rank (pJ)
system.hmc_dev.mem_ctrls1.rank0.preBackEnergy 1625987831391.216064                       # Energy for precharge background per rank (pJ)
system.hmc_dev.mem_ctrls1.rank0.actPowerDownEnergy            0                       # Energy for active power-down per rank (pJ)
system.hmc_dev.mem_ctrls1.rank0.prePowerDownEnergy            0                       # Energy for precharge power-down per rank (pJ)
system.hmc_dev.mem_ctrls1.rank0.selfRefreshEnergy            0                       # Energy for self refresh per rank (pJ)
system.hmc_dev.mem_ctrls1.rank0.totalEnergy 1812800465215.378418                       # Total energy per rank (pJ)
system.hmc_dev.mem_ctrls1.rank0.averagePower    52.689486                       # Core power per rank (mW)
system.hmc_dev.mem_ctrls1.rank0.totalIdleTime            0                       # Total Idle time Per DRAM Rank
system.hmc_dev.mem_ctrls1.rank0.memoryStateTime::IDLE 33795926840800                       # Time in different power states
system.hmc_dev.mem_ctrls1.rank0.memoryStateTime::REF 521520883000                       # Time in different power states
system.hmc_dev.mem_ctrls1.rank0.memoryStateTime::SREF            0                       # Time in different power states
system.hmc_dev.mem_ctrls1.rank0.memoryStateTime::PRE_PDN            0                       # Time in different power states
system.hmc_dev.mem_ctrls1.rank0.memoryStateTime::ACT  87907183700                       # Time in different power states
system.hmc_dev.mem_ctrls1.rank0.memoryStateTime::ACT_PDN            0                       # Time in different power states
system.hmc_dev.buffers79.pwrStateResidencyTicks::UNDEFINED 34405354907500                       # Cumulative time (in ticks) in various power states
system.hmc_dev.buffers78.pwrStateResidencyTicks::UNDEFINED 34405354907500                       # Cumulative time (in ticks) in various power states
system.hmc_dev.buffers75.pwrStateResidencyTicks::UNDEFINED 34405354907500                       # Cumulative time (in ticks) in various power states
system.hmc_dev.buffers74.pwrStateResidencyTicks::UNDEFINED 34405354907500                       # Cumulative time (in ticks) in various power states
system.hmc_dev.buffers77.pwrStateResidencyTicks::UNDEFINED 34405354907500                       # Cumulative time (in ticks) in various power states
system.hmc_dev.buffers218.pwrStateResidencyTicks::UNDEFINED 34405354907500                       # Cumulative time (in ticks) in various power states
system.hmc_dev.buffers71.pwrStateResidencyTicks::UNDEFINED 34405354907500                       # Cumulative time (in ticks) in various power states
system.hmc_dev.buffers70.pwrStateResidencyTicks::UNDEFINED 34405354907500                       # Cumulative time (in ticks) in various power states
system.hmc_dev.buffers73.pwrStateResidencyTicks::UNDEFINED 34405354907500                       # Cumulative time (in ticks) in various power states
system.hmc_dev.buffers72.pwrStateResidencyTicks::UNDEFINED 34405354907500                       # Cumulative time (in ticks) in various power states
system.hmc_dev.buffers99.pwrStateResidencyTicks::UNDEFINED 34405354907500                       # Cumulative time (in ticks) in various power states
system.hmc_dev.buffers82.pwrStateResidencyTicks::UNDEFINED 34405354907500                       # Cumulative time (in ticks) in various power states
system.hmc_dev.buffers221.pwrStateResidencyTicks::UNDEFINED 34405354907500                       # Cumulative time (in ticks) in various power states
system.hmc_dev.buffers220.pwrStateResidencyTicks::UNDEFINED 34405354907500                       # Cumulative time (in ticks) in various power states
system.hmc_dev.xbar7.pwrStateResidencyTicks::UNDEFINED 34405354907500                       # Cumulative time (in ticks) in various power states
system.hmc_dev.xbar7.trans_dist::ReadReq      1250000                       # Transaction distribution
system.hmc_dev.xbar7.trans_dist::ReadResp      1250000                       # Transaction distribution
system.hmc_dev.xbar7.trans_dist::WriteReq      1250000                       # Transaction distribution
system.hmc_dev.xbar7.trans_dist::WriteResp      1250000                       # Transaction distribution
system.hmc_dev.xbar7.pkt_count_system.hmc_dev.buffers066.master::system.hmc_dev.mem_ctrls07.port      5000000                       # Packet count per connected master and slave (bytes)
system.hmc_dev.xbar7.pkt_count_system.hmc_dev.buffers066.master::total      5000000                       # Packet count per connected master and slave (bytes)
system.hmc_dev.xbar7.pkt_count::total         5000000                       # Packet count per connected master and slave (bytes)
system.hmc_dev.xbar7.pkt_size_system.hmc_dev.buffers066.master::system.hmc_dev.mem_ctrls07.port     20000000                       # Cumulative packet size per connected master and slave (bytes)
system.hmc_dev.xbar7.pkt_size_system.hmc_dev.buffers066.master::total     20000000                       # Cumulative packet size per connected master and slave (bytes)
system.hmc_dev.xbar7.pkt_size::total         20000000                       # Cumulative packet size per connected master and slave (bytes)
system.hmc_dev.xbar7.clk_domain.clock            1000                       # Clock period in ticks
system.hmc_dev.xbar7.clk_domain.voltage_domain.voltage            1                       # Voltage in Volts
system.hmc_dev.xbar7.reqLayer15.occupancy   4307966200                       # Layer occupancy (ticks)
system.hmc_dev.xbar7.reqLayer15.utilization          0.0                       # Layer utilization (%)
system.hmc_dev.xbar7.respLayer4.occupancy   4614761300                       # Layer occupancy (ticks)
system.hmc_dev.xbar7.respLayer4.utilization          0.0                       # Layer utilization (%)
system.hmc_dev.buffers171.pwrStateResidencyTicks::UNDEFINED 34405354907500                       # Cumulative time (in ticks) in various power states
system.hmc_dev.buffers170.pwrStateResidencyTicks::UNDEFINED 34405354907500                       # Cumulative time (in ticks) in various power states
system.hmc_dev.buffers173.pwrStateResidencyTicks::UNDEFINED 34405354907500                       # Cumulative time (in ticks) in various power states
system.hmc_dev.buffers172.pwrStateResidencyTicks::UNDEFINED 34405354907500                       # Cumulative time (in ticks) in various power states
system.hmc_dev.buffers175.pwrStateResidencyTicks::UNDEFINED 34405354907500                       # Cumulative time (in ticks) in various power states
system.hmc_dev.buffers174.pwrStateResidencyTicks::UNDEFINED 34405354907500                       # Cumulative time (in ticks) in various power states
system.hmc_dev.buffers177.pwrStateResidencyTicks::UNDEFINED 34405354907500                       # Cumulative time (in ticks) in various power states
system.hmc_dev.buffers176.pwrStateResidencyTicks::UNDEFINED 34405354907500                       # Cumulative time (in ticks) in various power states
system.hmc_dev.buffers179.pwrStateResidencyTicks::UNDEFINED 34405354907500                       # Cumulative time (in ticks) in various power states
system.hmc_dev.buffers178.pwrStateResidencyTicks::UNDEFINED 34405354907500                       # Cumulative time (in ticks) in various power states
system.hmc_dev.buffers68.pwrStateResidencyTicks::UNDEFINED 34405354907500                       # Cumulative time (in ticks) in various power states
system.hmc_dev.buffers69.pwrStateResidencyTicks::UNDEFINED 34405354907500                       # Cumulative time (in ticks) in various power states
system.hmc_dev.buffers66.pwrStateResidencyTicks::UNDEFINED 34405354907500                       # Cumulative time (in ticks) in various power states
system.hmc_dev.buffers67.pwrStateResidencyTicks::UNDEFINED 34405354907500                       # Cumulative time (in ticks) in various power states
system.hmc_dev.buffers64.pwrStateResidencyTicks::UNDEFINED 34405354907500                       # Cumulative time (in ticks) in various power states
system.hmc_dev.buffers65.pwrStateResidencyTicks::UNDEFINED 34405354907500                       # Cumulative time (in ticks) in various power states
system.hmc_dev.buffers62.pwrStateResidencyTicks::UNDEFINED 34405354907500                       # Cumulative time (in ticks) in various power states
system.hmc_dev.buffers63.pwrStateResidencyTicks::UNDEFINED 34405354907500                       # Cumulative time (in ticks) in various power states
system.hmc_dev.buffers60.pwrStateResidencyTicks::UNDEFINED 34405354907500                       # Cumulative time (in ticks) in various power states
system.hmc_dev.buffers61.pwrStateResidencyTicks::UNDEFINED 34405354907500                       # Cumulative time (in ticks) in various power states
system.hmc_dev.buffers229.pwrStateResidencyTicks::UNDEFINED 34405354907500                       # Cumulative time (in ticks) in various power states
system.hmc_dev.buffers228.pwrStateResidencyTicks::UNDEFINED 34405354907500                       # Cumulative time (in ticks) in various power states
system.hmc_dev.xbar9.pwrStateResidencyTicks::UNDEFINED 34405354907500                       # Cumulative time (in ticks) in various power states
system.hmc_dev.xbar9.clk_domain.clock            1000                       # Clock period in ticks
system.hmc_dev.xbar9.clk_domain.voltage_domain.voltage            1                       # Voltage in Volts
system.hmc_dev.buffers144.pwrStateResidencyTicks::UNDEFINED 34405354907500                       # Cumulative time (in ticks) in various power states
system.hmc_dev.buffers145.pwrStateResidencyTicks::UNDEFINED 34405354907500                       # Cumulative time (in ticks) in various power states
system.hmc_dev.buffers146.pwrStateResidencyTicks::UNDEFINED 34405354907500                       # Cumulative time (in ticks) in various power states
system.hmc_dev.buffers147.pwrStateResidencyTicks::UNDEFINED 34405354907500                       # Cumulative time (in ticks) in various power states
system.hmc_dev.buffers140.pwrStateResidencyTicks::UNDEFINED 34405354907500                       # Cumulative time (in ticks) in various power states
system.hmc_dev.buffers141.pwrStateResidencyTicks::UNDEFINED 34405354907500                       # Cumulative time (in ticks) in various power states
system.hmc_dev.buffers142.pwrStateResidencyTicks::UNDEFINED 34405354907500                       # Cumulative time (in ticks) in various power states
system.hmc_dev.buffers143.pwrStateResidencyTicks::UNDEFINED 34405354907500                       # Cumulative time (in ticks) in various power states
system.hmc_dev.buffers148.pwrStateResidencyTicks::UNDEFINED 34405354907500                       # Cumulative time (in ticks) in various power states
system.hmc_dev.buffers149.pwrStateResidencyTicks::UNDEFINED 34405354907500                       # Cumulative time (in ticks) in various power states
system.hmc_host.seriallink3.pwrStateResidencyTicks::UNDEFINED 34405354907500                       # Cumulative time (in ticks) in various power states
system.hmc_host.seriallink3.clk_domain.clock         1600                       # Clock period in ticks
system.hmc_host.seriallink3.clk_domain.voltage_domain.voltage            1                       # Voltage in Volts
system.hmc_host.seriallink2.pwrStateResidencyTicks::UNDEFINED 34405354907500                       # Cumulative time (in ticks) in various power states
system.hmc_host.seriallink2.clk_domain.clock         1600                       # Clock period in ticks
system.hmc_host.seriallink2.clk_domain.voltage_domain.voltage            1                       # Voltage in Volts
system.hmc_host.seriallink1.pwrStateResidencyTicks::UNDEFINED 34405354907500                       # Cumulative time (in ticks) in various power states
system.hmc_host.seriallink1.clk_domain.clock         1600                       # Clock period in ticks
system.hmc_host.seriallink1.clk_domain.voltage_domain.voltage            1                       # Voltage in Volts
system.hmc_host.seriallink0.pwrStateResidencyTicks::UNDEFINED 34405354907500                       # Cumulative time (in ticks) in various power states
system.hmc_host.seriallink0.clk_domain.clock         1600                       # Clock period in ticks
system.hmc_host.seriallink0.clk_domain.voltage_domain.voltage            1                       # Voltage in Volts
system.cpu_voltage_domain.voltage                   1                       # Voltage in Volts
system.cpu_clk_domain.clock                       500                       # Clock period in ticks
system.cpu.numPwrStateTransitions                   1                       # Number of power state transitions
system.cpu.pwrStateResidencyTicks::ON    34405354907500                       # Cumulative time (in ticks) in various power states
system.cpu.dtb.walker.pwrStateResidencyTicks::UNDEFINED 34405354907500                       # Cumulative time (in ticks) in various power states
system.cpu.interrupts.clk_domain.clock           8000                       # Clock period in ticks
system.cpu.itb.walker.pwrStateResidencyTicks::UNDEFINED 34405354907500                       # Cumulative time (in ticks) in various power states

---------- End Simulation Statistics   ----------
