
---------- Begin Simulation Statistics ----------
final_tick                               2477442289953                       # Number of ticks from beginning of simulation (restored from checkpoints and never reset)
host_inst_rate                                1221526                       # Simulator instruction rate (inst/s)
host_mem_usage                                2464244                       # Number of bytes of host memory used
host_op_rate                                  2459261                       # Simulator op (including micro ops) rate (op/s)
host_seconds                                  2086.44                       # Real time elapsed on the host
host_tick_rate                             1187402691                       # Simulator tick rate (ticks/s)
sim_freq                                 1000000000000                       # Frequency of simulated ticks
sim_insts                                  2548638758                       # Number of instructions simulated
sim_ops                                    5131095372                       # Number of ops (including micro ops) simulated
sim_seconds                                  2.477442                       # Number of seconds simulated
sim_ticks                                2477442289953                       # Number of ticks simulated
system.cpu.Branches                         570104395                       # Number of branches fetched
system.cpu.committedInsts                  2548638758                       # Number of instructions committed
system.cpu.committedOps                    5131095372                       # Number of ops (including micro ops) committed
system.cpu.dtb.rdAccesses                   809247504                       # TLB accesses on read requests
system.cpu.dtb.rdMisses                         41756                       # TLB misses on read requests
system.cpu.dtb.wrAccesses                   463219551                       # TLB accesses on write requests
system.cpu.dtb.wrMisses                          9490                       # TLB misses on write requests
system.cpu.idle_fraction                     0.000000                       # Percentage of idle cycles
system.cpu.itb.rdAccesses                           0                       # TLB accesses on read requests
system.cpu.itb.rdMisses                             0                       # TLB misses on read requests
system.cpu.itb.wrAccesses                  3376163778                       # TLB accesses on write requests
system.cpu.itb.wrMisses                           467                       # TLB misses on write requests
system.cpu.not_idle_fraction                 1.000000                       # Percentage of non-idle cycles
system.cpu.numCycles                       5958620392                       # number of cpu cycles simulated
system.cpu.numWorkItemsCompleted                    0                       # number of work items this cpu completed
system.cpu.numWorkItemsStarted                      0                       # number of work items this cpu started
system.cpu.num_busy_cycles               5958620391.997595                       # Number of busy cycles
system.cpu.num_cc_register_reads           2424409332                       # number of times the CC registers were read
system.cpu.num_cc_register_writes          1346134459                       # number of times the CC registers were written
system.cpu.num_conditional_control_insts    348729632                       # number of instructions that are conditional controls
system.cpu.num_fp_alu_accesses              122420893                       # Number of float alu accesses
system.cpu.num_fp_insts                     122420893                       # number of float instructions
system.cpu.num_fp_register_reads            197949136                       # number of times the floating registers were read
system.cpu.num_fp_register_writes           110752075                       # number of times the floating registers were written
system.cpu.num_func_calls                   137631904                       # number of times a function call or return occured
system.cpu.num_idle_cycles                   0.002405                       # Number of idle cycles
system.cpu.num_int_alu_accesses            4998783494                       # Number of integer alu accesses
system.cpu.num_int_insts                   4998783494                       # number of integer instructions
system.cpu.num_int_register_reads         10287536119                       # number of times the integer registers were read
system.cpu.num_int_register_writes         4068690472                       # number of times the integer registers were written
system.cpu.num_load_insts                   808164253                       # Number of load instructions
system.cpu.num_mem_refs                    1270967231                       # number of memory refs
system.cpu.num_store_insts                  462802978                       # Number of store instructions
system.cpu.num_vec_alu_accesses                     0                       # Number of vector alu accesses
system.cpu.num_vec_insts                            0                       # number of vector instructions
system.cpu.num_vec_register_reads                   0                       # number of times the vector registers were read
system.cpu.num_vec_register_writes                  0                       # number of times the vector registers were written
system.cpu.op_class::No_OpClass              29025153      0.57%      0.57% # Class of executed instruction
system.cpu.op_class::IntAlu                3685671836     71.83%     72.40% # Class of executed instruction
system.cpu.op_class::IntMult                  5047160      0.10%     72.49% # Class of executed instruction
system.cpu.op_class::IntDiv                  53901025      1.05%     73.54% # Class of executed instruction
system.cpu.op_class::FloatAdd                 9307927      0.18%     73.73% # Class of executed instruction
system.cpu.op_class::FloatCmp                       0      0.00%     73.73% # Class of executed instruction
system.cpu.op_class::FloatCvt                    3008      0.00%     73.73% # Class of executed instruction
system.cpu.op_class::FloatMult                      0      0.00%     73.73% # Class of executed instruction
system.cpu.op_class::FloatMultAcc                   0      0.00%     73.73% # Class of executed instruction
system.cpu.op_class::FloatDiv                       0      0.00%     73.73% # Class of executed instruction
system.cpu.op_class::FloatMisc                      0      0.00%     73.73% # Class of executed instruction
system.cpu.op_class::FloatSqrt                      0      0.00%     73.73% # Class of executed instruction
system.cpu.op_class::SimdAdd                  4527326      0.09%     73.81% # Class of executed instruction
system.cpu.op_class::SimdAddAcc                     0      0.00%     73.81% # Class of executed instruction
system.cpu.op_class::SimdAlu                 11924303      0.23%     74.05% # Class of executed instruction
system.cpu.op_class::SimdCmp                        6      0.00%     74.05% # Class of executed instruction
system.cpu.op_class::SimdCvt                 11904340      0.23%     74.28% # Class of executed instruction
system.cpu.op_class::SimdMisc                17602026      0.34%     74.62% # Class of executed instruction
system.cpu.op_class::SimdMult                       0      0.00%     74.62% # Class of executed instruction
system.cpu.op_class::SimdMultAcc                    0      0.00%     74.62% # Class of executed instruction
system.cpu.op_class::SimdShift                6156939      0.12%     74.74% # Class of executed instruction
system.cpu.op_class::SimdShiftAcc                   0      0.00%     74.74% # Class of executed instruction
system.cpu.op_class::SimdDiv                        0      0.00%     74.74% # Class of executed instruction
system.cpu.op_class::SimdSqrt                       0      0.00%     74.74% # Class of executed instruction
system.cpu.op_class::SimdFloatAdd            14489461      0.28%     75.02% # Class of executed instruction
system.cpu.op_class::SimdFloatAlu                   0      0.00%     75.02% # Class of executed instruction
system.cpu.op_class::SimdFloatCmp                   0      0.00%     75.02% # Class of executed instruction
system.cpu.op_class::SimdFloatCvt             6340585      0.12%     75.15% # Class of executed instruction
system.cpu.op_class::SimdFloatDiv             2113526      0.04%     75.19% # Class of executed instruction
system.cpu.op_class::SimdFloatMisc                  0      0.00%     75.19% # Class of executed instruction
system.cpu.op_class::SimdFloatMult            2113520      0.04%     75.23% # Class of executed instruction
system.cpu.op_class::SimdFloatMultAcc               0      0.00%     75.23% # Class of executed instruction
system.cpu.op_class::SimdFloatSqrt                  0      0.00%     75.23% # Class of executed instruction
system.cpu.op_class::SimdReduceAdd                  0      0.00%     75.23% # Class of executed instruction
system.cpu.op_class::SimdReduceAlu                  0      0.00%     75.23% # Class of executed instruction
system.cpu.op_class::SimdReduceCmp                  0      0.00%     75.23% # Class of executed instruction
system.cpu.op_class::SimdFloatReduceAdd             0      0.00%     75.23% # Class of executed instruction
system.cpu.op_class::SimdFloatReduceCmp             0      0.00%     75.23% # Class of executed instruction
system.cpu.op_class::SimdAes                        0      0.00%     75.23% # Class of executed instruction
system.cpu.op_class::SimdAesMix                     0      0.00%     75.23% # Class of executed instruction
system.cpu.op_class::SimdSha1Hash                   0      0.00%     75.23% # Class of executed instruction
system.cpu.op_class::SimdSha1Hash2                  0      0.00%     75.23% # Class of executed instruction
system.cpu.op_class::SimdSha256Hash                 0      0.00%     75.23% # Class of executed instruction
system.cpu.op_class::SimdSha256Hash2                0      0.00%     75.23% # Class of executed instruction
system.cpu.op_class::SimdShaSigma2                  0      0.00%     75.23% # Class of executed instruction
system.cpu.op_class::SimdShaSigma3                  0      0.00%     75.23% # Class of executed instruction
system.cpu.op_class::SimdPredAlu                    0      0.00%     75.23% # Class of executed instruction
system.cpu.op_class::MemRead                783600420     15.27%     90.50% # Class of executed instruction
system.cpu.op_class::MemWrite               458212533      8.93%     99.43% # Class of executed instruction
system.cpu.op_class::FloatMemRead            24563833      0.48%     99.91% # Class of executed instruction
system.cpu.op_class::FloatMemWrite            4590445      0.09%    100.00% # Class of executed instruction
system.cpu.op_class::IprAccess                      0      0.00%    100.00% # Class of executed instruction
system.cpu.op_class::InstPrefetch                   0      0.00%    100.00% # Class of executed instruction
system.cpu.op_class::total                 5131095372                       # Class of executed instruction
system.cpu.workload.numSyscalls                  2212                       # Number of system calls
system.membus.snoop_filter.hit_multi_requests            0                       # Number of requests hitting in the snoop filter with multiple (>1) holders of the requested data.
system.membus.snoop_filter.hit_multi_snoops            0                       # Number of snoops hitting in the snoop filter with multiple (>1) holders of the requested data.
system.membus.snoop_filter.hit_single_requests      2385835                       # Number of requests hitting in the snoop filter with a single holder of the requested data.
system.membus.snoop_filter.hit_single_snoops            0                       # Number of snoops hitting in the snoop filter with a single holder of the requested data.
system.membus.snoop_filter.tot_requests       4804703                       # Total number of requests made to the snoop filter.
system.membus.snoop_filter.tot_snoops               0                       # Total number of snoops made to the snoop filter.
system.tol2bus.snoop_filter.hit_multi_requests            0                       # Number of requests hitting in the snoop filter with multiple (>1) holders of the requested data.
system.tol2bus.snoop_filter.hit_multi_snoops            0                       # Number of snoops hitting in the snoop filter with multiple (>1) holders of the requested data.
system.tol2bus.snoop_filter.hit_single_requests     25679241                       # Number of requests hitting in the snoop filter with a single holder of the requested data.
system.tol2bus.snoop_filter.hit_single_snoops         2416                       # Number of snoops hitting in the snoop filter with a single holder of the requested data.
system.tol2bus.snoop_filter.tot_requests     51359506                       # Total number of requests made to the snoop filter.
system.tol2bus.snoop_filter.tot_snoops           2416                       # Total number of snoops made to the snoop filter.
system.membus.pwrStateResidencyTicks::UNDEFINED 2477442289953                       # Cumulative time (in ticks) in various power states
system.membus.trans_dist::ReadResp            1933346                       # Transaction distribution
system.membus.trans_dist::WritebackDirty       767502                       # Transaction distribution
system.membus.trans_dist::CleanEvict          1618333                       # Transaction distribution
system.membus.trans_dist::ReadExReq            485522                       # Transaction distribution
system.membus.trans_dist::ReadExResp           485522                       # Transaction distribution
system.membus.trans_dist::ReadSharedReq       1933346                       # Transaction distribution
system.membus.pkt_count_system.l2.mem_side::system.mem_ctrls.port      7223571                       # Packet count per connected master and slave (bytes)
system.membus.pkt_count_system.l2.mem_side::total      7223571                       # Packet count per connected master and slave (bytes)
system.membus.pkt_count::total                7223571                       # Packet count per connected master and slave (bytes)
system.membus.pkt_size_system.l2.mem_side::system.mem_ctrls.port    203927680                       # Cumulative packet size per connected master and slave (bytes)
system.membus.pkt_size_system.l2.mem_side::total    203927680                       # Cumulative packet size per connected master and slave (bytes)
system.membus.pkt_size::total               203927680                       # Cumulative packet size per connected master and slave (bytes)
system.membus.snoops                                0                       # Total snoops (count)
system.membus.snoopTraffic                          0                       # Total snoop traffic (bytes)
system.membus.snoop_fanout::samples           2418868                       # Request fanout histogram
system.membus.snoop_fanout::mean                    0                       # Request fanout histogram
system.membus.snoop_fanout::stdev                   0                       # Request fanout histogram
system.membus.snoop_fanout::underflows              0      0.00%      0.00% # Request fanout histogram
system.membus.snoop_fanout::0                 2418868    100.00%    100.00% # Request fanout histogram
system.membus.snoop_fanout::1                       0      0.00%    100.00% # Request fanout histogram
system.membus.snoop_fanout::overflows               0      0.00%    100.00% # Request fanout histogram
system.membus.snoop_fanout::min_value               0                       # Request fanout histogram
system.membus.snoop_fanout::max_value               0                       # Request fanout histogram
system.membus.snoop_fanout::total             2418868                       # Request fanout histogram
system.tol2bus.pwrStateResidencyTicks::UNDEFINED 2477442289953                       # Cumulative time (in ticks) in various power states
system.tol2bus.trans_dist::ReadResp          25066700                       # Transaction distribution
system.tol2bus.trans_dist::WritebackDirty      2163255                       # Transaction distribution
system.tol2bus.trans_dist::WritebackClean     19328653                       # Transaction distribution
system.tol2bus.trans_dist::CleanEvict         4187333                       # Transaction distribution
system.tol2bus.trans_dist::ReadExReq           613565                       # Transaction distribution
system.tol2bus.trans_dist::ReadExResp          613565                       # Transaction distribution
system.tol2bus.trans_dist::ReadCleanReq      19329165                       # Transaction distribution
system.tol2bus.trans_dist::ReadSharedReq      5737535                       # Transaction distribution
system.tol2bus.pkt_count_system.cpu.icache.mem_side::system.l2.cpu_side     57986983                       # Packet count per connected master and slave (bytes)
system.tol2bus.pkt_count_system.cpu.dcache.mem_side::system.l2.cpu_side     19052788                       # Packet count per connected master and slave (bytes)
system.tol2bus.pkt_count::total              77039771                       # Packet count per connected master and slave (bytes)
system.tol2bus.pkt_size_system.cpu.icache.mem_side::system.l2.cpu_side   2474100352                       # Cumulative packet size per connected master and slave (bytes)
system.tol2bus.pkt_size_system.cpu.dcache.mem_side::system.l2.cpu_side    544918720                       # Cumulative packet size per connected master and slave (bytes)
system.tol2bus.pkt_size::total             3019019072                       # Cumulative packet size per connected master and slave (bytes)
system.tol2bus.snoops                         2388212                       # Total snoops (count)
system.tol2bus.snoopTraffic                  49120128                       # Total snoop traffic (bytes)
system.tol2bus.snoop_fanout::samples         28068477                       # Request fanout histogram
system.tol2bus.snoop_fanout::mean            0.000086                       # Request fanout histogram
system.tol2bus.snoop_fanout::stdev           0.009277                       # Request fanout histogram
system.tol2bus.snoop_fanout::underflows             0      0.00%      0.00% # Request fanout histogram
system.tol2bus.snoop_fanout::0               28066061     99.99%     99.99% # Request fanout histogram
system.tol2bus.snoop_fanout::1                   2416      0.01%    100.00% # Request fanout histogram
system.tol2bus.snoop_fanout::2                      0      0.00%    100.00% # Request fanout histogram
system.tol2bus.snoop_fanout::3                      0      0.00%    100.00% # Request fanout histogram
system.tol2bus.snoop_fanout::4                      0      0.00%    100.00% # Request fanout histogram
system.tol2bus.snoop_fanout::overflows              0      0.00%    100.00% # Request fanout histogram
system.tol2bus.snoop_fanout::min_value              0                       # Request fanout histogram
system.tol2bus.snoop_fanout::max_value              1                       # Request fanout histogram
system.tol2bus.snoop_fanout::total           28068477                       # Request fanout histogram
system.voltage_domain.voltage                       1                       # Voltage in Volts
system.clk_domain.clock                          1000                       # Clock period in ticks
system.l2.pwrStateResidencyTicks::UNDEFINED 2477442289953                       # Cumulative time (in ticks) in various power states
system.l2.demand_hits::.cpu.inst             19325129                       # number of demand (read+write) hits
system.l2.demand_hits::.cpu.data              3936268                       # number of demand (read+write) hits
system.l2.demand_hits::total                 23261397                       # number of demand (read+write) hits
system.l2.overall_hits::.cpu.inst            19325129                       # number of overall hits
system.l2.overall_hits::.cpu.data             3936268                       # number of overall hits
system.l2.overall_hits::total                23261397                       # number of overall hits
system.l2.demand_misses::.cpu.inst               4036                       # number of demand (read+write) misses
system.l2.demand_misses::.cpu.data            2414832                       # number of demand (read+write) misses
system.l2.demand_misses::total                2418868                       # number of demand (read+write) misses
system.l2.overall_misses::.cpu.inst              4036                       # number of overall misses
system.l2.overall_misses::.cpu.data           2414832                       # number of overall misses
system.l2.overall_misses::total               2418868                       # number of overall misses
system.l2.demand_accesses::.cpu.inst         19329165                       # number of demand (read+write) accesses
system.l2.demand_accesses::.cpu.data          6351100                       # number of demand (read+write) accesses
system.l2.demand_accesses::total             25680265                       # number of demand (read+write) accesses
system.l2.overall_accesses::.cpu.inst        19329165                       # number of overall (read+write) accesses
system.l2.overall_accesses::.cpu.data         6351100                       # number of overall (read+write) accesses
system.l2.overall_accesses::total            25680265                       # number of overall (read+write) accesses
system.l2.demand_miss_rate::.cpu.inst        0.000209                       # miss rate for demand accesses
system.l2.demand_miss_rate::.cpu.data        0.380223                       # miss rate for demand accesses
system.l2.demand_miss_rate::total            0.094192                       # miss rate for demand accesses
system.l2.overall_miss_rate::.cpu.inst       0.000209                       # miss rate for overall accesses
system.l2.overall_miss_rate::.cpu.data       0.380223                       # miss rate for overall accesses
system.l2.overall_miss_rate::total           0.094192                       # miss rate for overall accesses
system.l2.blocked_cycles::no_mshrs                  0                       # number of cycles access was blocked
system.l2.blocked_cycles::no_targets                0                       # number of cycles access was blocked
system.l2.blocked::no_mshrs                         0                       # number of cycles access was blocked
system.l2.blocked::no_targets                       0                       # number of cycles access was blocked
system.l2.avg_blocked_cycles::no_mshrs            nan                       # average number of cycles each access was blocked
system.l2.avg_blocked_cycles::no_targets          nan                       # average number of cycles each access was blocked
system.l2.writebacks::.writebacks              767502                       # number of writebacks
system.l2.writebacks::total                    767502                       # number of writebacks
system.l2.replacements                        2388212                       # number of replacements
system.l2.WritebackDirty_hits::.writebacks      2163255                       # number of WritebackDirty hits
system.l2.WritebackDirty_hits::total          2163255                       # number of WritebackDirty hits
system.l2.WritebackDirty_accesses::.writebacks      2163255                       # number of WritebackDirty accesses(hits+misses)
system.l2.WritebackDirty_accesses::total      2163255                       # number of WritebackDirty accesses(hits+misses)
system.l2.WritebackClean_hits::.writebacks     19328653                       # number of WritebackClean hits
system.l2.WritebackClean_hits::total         19328653                       # number of WritebackClean hits
system.l2.WritebackClean_accesses::.writebacks     19328653                       # number of WritebackClean accesses(hits+misses)
system.l2.WritebackClean_accesses::total     19328653                       # number of WritebackClean accesses(hits+misses)
system.l2.ReadExReq_hits::.cpu.data            128043                       # number of ReadExReq hits
system.l2.ReadExReq_hits::total                128043                       # number of ReadExReq hits
system.l2.ReadExReq_misses::.cpu.data          485522                       # number of ReadExReq misses
system.l2.ReadExReq_misses::total              485522                       # number of ReadExReq misses
system.l2.ReadExReq_accesses::.cpu.data        613565                       # number of ReadExReq accesses(hits+misses)
system.l2.ReadExReq_accesses::total            613565                       # number of ReadExReq accesses(hits+misses)
system.l2.ReadExReq_miss_rate::.cpu.data     0.791313                       # miss rate for ReadExReq accesses
system.l2.ReadExReq_miss_rate::total         0.791313                       # miss rate for ReadExReq accesses
system.l2.ReadCleanReq_hits::.cpu.inst       19325129                       # number of ReadCleanReq hits
system.l2.ReadCleanReq_hits::total           19325129                       # number of ReadCleanReq hits
system.l2.ReadCleanReq_misses::.cpu.inst         4036                       # number of ReadCleanReq misses
system.l2.ReadCleanReq_misses::total             4036                       # number of ReadCleanReq misses
system.l2.ReadCleanReq_accesses::.cpu.inst     19329165                       # number of ReadCleanReq accesses(hits+misses)
system.l2.ReadCleanReq_accesses::total       19329165                       # number of ReadCleanReq accesses(hits+misses)
system.l2.ReadCleanReq_miss_rate::.cpu.inst     0.000209                       # miss rate for ReadCleanReq accesses
system.l2.ReadCleanReq_miss_rate::total      0.000209                       # miss rate for ReadCleanReq accesses
system.l2.ReadSharedReq_hits::.cpu.data       3808225                       # number of ReadSharedReq hits
system.l2.ReadSharedReq_hits::total           3808225                       # number of ReadSharedReq hits
system.l2.ReadSharedReq_misses::.cpu.data      1929310                       # number of ReadSharedReq misses
system.l2.ReadSharedReq_misses::total         1929310                       # number of ReadSharedReq misses
system.l2.ReadSharedReq_accesses::.cpu.data      5737535                       # number of ReadSharedReq accesses(hits+misses)
system.l2.ReadSharedReq_accesses::total       5737535                       # number of ReadSharedReq accesses(hits+misses)
system.l2.ReadSharedReq_miss_rate::.cpu.data     0.336261                       # miss rate for ReadSharedReq accesses
system.l2.ReadSharedReq_miss_rate::total     0.336261                       # miss rate for ReadSharedReq accesses
system.l2.tags.pwrStateResidencyTicks::UNDEFINED 2477442289953                       # Cumulative time (in ticks) in various power states
system.l2.tags.tagsinuse                 31210.996623                       # Cycle average of tags in use
system.l2.tags.total_refs                    51359467                       # Total number of references to valid blocks.
system.l2.tags.sampled_refs                   2420980                       # Sample count of references to valid blocks.
system.l2.tags.avg_refs                     21.214329                       # Average number of references to valid blocks.
system.l2.tags.warmup_cycle                         0                       # Cycle when the warmup percentage was hit.
system.l2.tags.occ_blocks::.writebacks      48.886236                       # Average occupied blocks per requestor
system.l2.tags.occ_blocks::.cpu.inst       413.430513                       # Average occupied blocks per requestor
system.l2.tags.occ_blocks::.cpu.data     30748.679874                       # Average occupied blocks per requestor
system.l2.tags.occ_percent::.writebacks      0.001492                       # Average percentage of cache occupancy
system.l2.tags.occ_percent::.cpu.inst        0.012617                       # Average percentage of cache occupancy
system.l2.tags.occ_percent::.cpu.data        0.938375                       # Average percentage of cache occupancy
system.l2.tags.occ_percent::total            0.952484                       # Average percentage of cache occupancy
system.l2.tags.occ_task_id_blocks::1024         32768                       # Occupied blocks per task id
system.l2.tags.age_task_id_blocks_1024::0          566                       # Occupied blocks per task id
system.l2.tags.age_task_id_blocks_1024::1         1406                       # Occupied blocks per task id
system.l2.tags.age_task_id_blocks_1024::2        11390                       # Occupied blocks per task id
system.l2.tags.age_task_id_blocks_1024::3        18431                       # Occupied blocks per task id
system.l2.tags.age_task_id_blocks_1024::4          975                       # Occupied blocks per task id
system.l2.tags.occ_task_id_percent::1024            1                       # Percentage of cache occupancy per task id
system.l2.tags.tag_accesses                 413297028                       # Number of tag accesses
system.l2.tags.data_accesses                413297028                       # Number of data accesses
system.cpu_voltage_domain.voltage                   1                       # Voltage in Volts
system.mem_ctrls.pwrStateResidencyTicks::UNDEFINED 2477442289953                       # Cumulative time (in ticks) in various power states
system.mem_ctrls.bytes_read::.cpu.inst         258304                       # Number of bytes read from this memory
system.mem_ctrls.bytes_read::.cpu.data      154549248                       # Number of bytes read from this memory
system.mem_ctrls.bytes_read::total          154807552                       # Number of bytes read from this memory
system.mem_ctrls.bytes_inst_read::.cpu.inst       258304                       # Number of instructions bytes read from this memory
system.mem_ctrls.bytes_inst_read::total        258304                       # Number of instructions bytes read from this memory
system.mem_ctrls.bytes_written::.writebacks     49120128                       # Number of bytes written to this memory
system.mem_ctrls.bytes_written::total        49120128                       # Number of bytes written to this memory
system.mem_ctrls.num_reads::.cpu.inst            4036                       # Number of read requests responded to by this memory
system.mem_ctrls.num_reads::.cpu.data         2414832                       # Number of read requests responded to by this memory
system.mem_ctrls.num_reads::total             2418868                       # Number of read requests responded to by this memory
system.mem_ctrls.num_writes::.writebacks       767502                       # Number of write requests responded to by this memory
system.mem_ctrls.num_writes::total             767502                       # Number of write requests responded to by this memory
system.mem_ctrls.bw_read::.cpu.inst            104262                       # Total read bandwidth from this memory (bytes/s)
system.mem_ctrls.bw_read::.cpu.data          62382582                       # Total read bandwidth from this memory (bytes/s)
system.mem_ctrls.bw_read::total              62486845                       # Total read bandwidth from this memory (bytes/s)
system.mem_ctrls.bw_inst_read::.cpu.inst       104262                       # Instruction read bandwidth from this memory (bytes/s)
system.mem_ctrls.bw_inst_read::total           104262                       # Instruction read bandwidth from this memory (bytes/s)
system.mem_ctrls.bw_write::.writebacks       19826951                       # Write bandwidth from this memory (bytes/s)
system.mem_ctrls.bw_write::total             19826951                       # Write bandwidth from this memory (bytes/s)
system.mem_ctrls.bw_total::.writebacks       19826951                       # Total bandwidth to/from this memory (bytes/s)
system.mem_ctrls.bw_total::.cpu.inst           104262                       # Total bandwidth to/from this memory (bytes/s)
system.mem_ctrls.bw_total::.cpu.data         62382582                       # Total bandwidth to/from this memory (bytes/s)
system.mem_ctrls.bw_total::total             82313796                       # Total bandwidth to/from this memory (bytes/s)
system.mem_ctrls.priorityMinLatency      0.000000000000                       # per QoS priority minimum request to response latency (s)
system.mem_ctrls.priorityMaxLatency      0.000000000000                       # per QoS priority maximum request to response latency (s)
system.mem_ctrls.numReadWriteTurnArounds            0                       # Number of turnarounds from READ to WRITE
system.mem_ctrls.numWriteReadTurnArounds            0                       # Number of turnarounds from WRITE to READ
system.mem_ctrls.numStayReadState                   0                       # Number of times bus staying in READ state
system.mem_ctrls.numStayWriteState                  0                       # Number of times bus staying in WRITE state
system.mem_ctrls.readReqs                           0                       # Number of read requests accepted
system.mem_ctrls.writeReqs                          0                       # Number of write requests accepted
system.mem_ctrls.readBursts                         0                       # Number of DRAM read bursts, including those serviced by the write queue
system.mem_ctrls.writeBursts                        0                       # Number of DRAM write bursts, including those merged in the write queue
system.mem_ctrls.servicedByWrQ                      0                       # Number of DRAM read bursts serviced by the write queue
system.mem_ctrls.mergedWrBursts                     0                       # Number of DRAM write bursts merged with an existing one
system.mem_ctrls.neitherReadNorWriteReqs            0                       # Number of requests that are neither read nor write
system.mem_ctrls.perBankRdBursts::0                 0                       # Per bank write bursts
system.mem_ctrls.perBankRdBursts::1                 0                       # Per bank write bursts
system.mem_ctrls.perBankRdBursts::2                 0                       # Per bank write bursts
system.mem_ctrls.perBankRdBursts::3                 0                       # Per bank write bursts
system.mem_ctrls.perBankRdBursts::4                 0                       # Per bank write bursts
system.mem_ctrls.perBankRdBursts::5                 0                       # Per bank write bursts
system.mem_ctrls.perBankRdBursts::6                 0                       # Per bank write bursts
system.mem_ctrls.perBankRdBursts::7                 0                       # Per bank write bursts
system.mem_ctrls.perBankRdBursts::8                 0                       # Per bank write bursts
system.mem_ctrls.perBankRdBursts::9                 0                       # Per bank write bursts
system.mem_ctrls.perBankRdBursts::10                0                       # Per bank write bursts
system.mem_ctrls.perBankRdBursts::11                0                       # Per bank write bursts
system.mem_ctrls.perBankRdBursts::12                0                       # Per bank write bursts
system.mem_ctrls.perBankRdBursts::13                0                       # Per bank write bursts
system.mem_ctrls.perBankRdBursts::14                0                       # Per bank write bursts
system.mem_ctrls.perBankRdBursts::15                0                       # Per bank write bursts
system.mem_ctrls.perBankWrBursts::0                 0                       # Per bank write bursts
system.mem_ctrls.perBankWrBursts::1                 0                       # Per bank write bursts
system.mem_ctrls.perBankWrBursts::2                 0                       # Per bank write bursts
system.mem_ctrls.perBankWrBursts::3                 0                       # Per bank write bursts
system.mem_ctrls.perBankWrBursts::4                 0                       # Per bank write bursts
system.mem_ctrls.perBankWrBursts::5                 0                       # Per bank write bursts
system.mem_ctrls.perBankWrBursts::6                 0                       # Per bank write bursts
system.mem_ctrls.perBankWrBursts::7                 0                       # Per bank write bursts
system.mem_ctrls.perBankWrBursts::8                 0                       # Per bank write bursts
system.mem_ctrls.perBankWrBursts::9                 0                       # Per bank write bursts
system.mem_ctrls.perBankWrBursts::10                0                       # Per bank write bursts
system.mem_ctrls.perBankWrBursts::11                0                       # Per bank write bursts
system.mem_ctrls.perBankWrBursts::12                0                       # Per bank write bursts
system.mem_ctrls.perBankWrBursts::13                0                       # Per bank write bursts
system.mem_ctrls.perBankWrBursts::14                0                       # Per bank write bursts
system.mem_ctrls.perBankWrBursts::15                0                       # Per bank write bursts
system.mem_ctrls.avgRdQLen                       0.00                       # Average read queue length when enqueuing
system.mem_ctrls.avgWrQLen                       0.00                       # Average write queue length when enqueuing
system.mem_ctrls.totQLat                            0                       # Total ticks spent queuing
system.mem_ctrls.totBusLat                          0                       # Total ticks spent in databus transfers
system.mem_ctrls.totMemAccLat                       0                       # Total ticks spent from burst creation until serviced by the DRAM
system.mem_ctrls.avgQLat                          nan                       # Average queueing delay per DRAM burst
system.mem_ctrls.avgBusLat                        nan                       # Average bus latency per DRAM burst
system.mem_ctrls.avgMemAccLat                     nan                       # Average memory access latency per DRAM burst
system.mem_ctrls.numRdRetry                         0                       # Number of times read queue was full causing retry
system.mem_ctrls.numWrRetry                         0                       # Number of times write queue was full causing retry
system.mem_ctrls.readRowHits                        0                       # Number of row buffer hits during reads
system.mem_ctrls.writeRowHits                       0                       # Number of row buffer hits during writes
system.mem_ctrls.readRowHitRate                   nan                       # Row buffer hit rate for reads
system.mem_ctrls.writeRowHitRate                  nan                       # Row buffer hit rate for writes
system.mem_ctrls.readPktSize::0                     0                       # Read request sizes (log2)
system.mem_ctrls.readPktSize::1                     0                       # Read request sizes (log2)
system.mem_ctrls.readPktSize::2                     0                       # Read request sizes (log2)
system.mem_ctrls.readPktSize::3                     0                       # Read request sizes (log2)
system.mem_ctrls.readPktSize::4                     0                       # Read request sizes (log2)
system.mem_ctrls.readPktSize::5                     0                       # Read request sizes (log2)
system.mem_ctrls.readPktSize::6                     0                       # Read request sizes (log2)
system.mem_ctrls.writePktSize::0                    0                       # Write request sizes (log2)
system.mem_ctrls.writePktSize::1                    0                       # Write request sizes (log2)
system.mem_ctrls.writePktSize::2                    0                       # Write request sizes (log2)
system.mem_ctrls.writePktSize::3                    0                       # Write request sizes (log2)
system.mem_ctrls.writePktSize::4                    0                       # Write request sizes (log2)
system.mem_ctrls.writePktSize::5                    0                       # Write request sizes (log2)
system.mem_ctrls.writePktSize::6                    0                       # Write request sizes (log2)
system.mem_ctrls.rdQLenPdf::0                       0                       # What read queue length does an incoming req see
system.mem_ctrls.rdQLenPdf::1                       0                       # What read queue length does an incoming req see
system.mem_ctrls.rdQLenPdf::2                       0                       # What read queue length does an incoming req see
system.mem_ctrls.rdQLenPdf::3                       0                       # What read queue length does an incoming req see
system.mem_ctrls.rdQLenPdf::4                       0                       # What read queue length does an incoming req see
system.mem_ctrls.rdQLenPdf::5                       0                       # What read queue length does an incoming req see
system.mem_ctrls.rdQLenPdf::6                       0                       # What read queue length does an incoming req see
system.mem_ctrls.rdQLenPdf::7                       0                       # What read queue length does an incoming req see
system.mem_ctrls.rdQLenPdf::8                       0                       # What read queue length does an incoming req see
system.mem_ctrls.rdQLenPdf::9                       0                       # What read queue length does an incoming req see
system.mem_ctrls.rdQLenPdf::10                      0                       # What read queue length does an incoming req see
system.mem_ctrls.rdQLenPdf::11                      0                       # What read queue length does an incoming req see
system.mem_ctrls.rdQLenPdf::12                      0                       # What read queue length does an incoming req see
system.mem_ctrls.rdQLenPdf::13                      0                       # What read queue length does an incoming req see
system.mem_ctrls.rdQLenPdf::14                      0                       # What read queue length does an incoming req see
system.mem_ctrls.rdQLenPdf::15                      0                       # What read queue length does an incoming req see
system.mem_ctrls.rdQLenPdf::16                      0                       # What read queue length does an incoming req see
system.mem_ctrls.rdQLenPdf::17                      0                       # What read queue length does an incoming req see
system.mem_ctrls.rdQLenPdf::18                      0                       # What read queue length does an incoming req see
system.mem_ctrls.rdQLenPdf::19                      0                       # What read queue length does an incoming req see
system.mem_ctrls.rdQLenPdf::20                      0                       # What read queue length does an incoming req see
system.mem_ctrls.rdQLenPdf::21                      0                       # What read queue length does an incoming req see
system.mem_ctrls.rdQLenPdf::22                      0                       # What read queue length does an incoming req see
system.mem_ctrls.rdQLenPdf::23                      0                       # What read queue length does an incoming req see
system.mem_ctrls.rdQLenPdf::24                      0                       # What read queue length does an incoming req see
system.mem_ctrls.rdQLenPdf::25                      0                       # What read queue length does an incoming req see
system.mem_ctrls.rdQLenPdf::26                      0                       # What read queue length does an incoming req see
system.mem_ctrls.rdQLenPdf::27                      0                       # What read queue length does an incoming req see
system.mem_ctrls.rdQLenPdf::28                      0                       # What read queue length does an incoming req see
system.mem_ctrls.rdQLenPdf::29                      0                       # What read queue length does an incoming req see
system.mem_ctrls.rdQLenPdf::30                      0                       # What read queue length does an incoming req see
system.mem_ctrls.rdQLenPdf::31                      0                       # What read queue length does an incoming req see
system.mem_ctrls.wrQLenPdf::0                       0                       # What write queue length does an incoming req see
system.mem_ctrls.wrQLenPdf::1                       0                       # What write queue length does an incoming req see
system.mem_ctrls.wrQLenPdf::2                       0                       # What write queue length does an incoming req see
system.mem_ctrls.wrQLenPdf::3                       0                       # What write queue length does an incoming req see
system.mem_ctrls.wrQLenPdf::4                       0                       # What write queue length does an incoming req see
system.mem_ctrls.wrQLenPdf::5                       0                       # What write queue length does an incoming req see
system.mem_ctrls.wrQLenPdf::6                       0                       # What write queue length does an incoming req see
system.mem_ctrls.wrQLenPdf::7                       0                       # What write queue length does an incoming req see
system.mem_ctrls.wrQLenPdf::8                       0                       # What write queue length does an incoming req see
system.mem_ctrls.wrQLenPdf::9                       0                       # What write queue length does an incoming req see
system.mem_ctrls.wrQLenPdf::10                      0                       # What write queue length does an incoming req see
system.mem_ctrls.wrQLenPdf::11                      0                       # What write queue length does an incoming req see
system.mem_ctrls.wrQLenPdf::12                      0                       # What write queue length does an incoming req see
system.mem_ctrls.wrQLenPdf::13                      0                       # What write queue length does an incoming req see
system.mem_ctrls.wrQLenPdf::14                      0                       # What write queue length does an incoming req see
system.mem_ctrls.wrQLenPdf::15                      0                       # What write queue length does an incoming req see
system.mem_ctrls.wrQLenPdf::16                      0                       # What write queue length does an incoming req see
system.mem_ctrls.wrQLenPdf::17                      0                       # What write queue length does an incoming req see
system.mem_ctrls.wrQLenPdf::18                      0                       # What write queue length does an incoming req see
system.mem_ctrls.wrQLenPdf::19                      0                       # What write queue length does an incoming req see
system.mem_ctrls.wrQLenPdf::20                      0                       # What write queue length does an incoming req see
system.mem_ctrls.wrQLenPdf::21                      0                       # What write queue length does an incoming req see
system.mem_ctrls.wrQLenPdf::22                      0                       # What write queue length does an incoming req see
system.mem_ctrls.wrQLenPdf::23                      0                       # What write queue length does an incoming req see
system.mem_ctrls.wrQLenPdf::24                      0                       # What write queue length does an incoming req see
system.mem_ctrls.wrQLenPdf::25                      0                       # What write queue length does an incoming req see
system.mem_ctrls.wrQLenPdf::26                      0                       # What write queue length does an incoming req see
system.mem_ctrls.wrQLenPdf::27                      0                       # What write queue length does an incoming req see
system.mem_ctrls.wrQLenPdf::28                      0                       # What write queue length does an incoming req see
system.mem_ctrls.wrQLenPdf::29                      0                       # What write queue length does an incoming req see
system.mem_ctrls.wrQLenPdf::30                      0                       # What write queue length does an incoming req see
system.mem_ctrls.wrQLenPdf::31                      0                       # What write queue length does an incoming req see
system.mem_ctrls.wrQLenPdf::32                      0                       # What write queue length does an incoming req see
system.mem_ctrls.wrQLenPdf::33                      0                       # What write queue length does an incoming req see
system.mem_ctrls.wrQLenPdf::34                      0                       # What write queue length does an incoming req see
system.mem_ctrls.wrQLenPdf::35                      0                       # What write queue length does an incoming req see
system.mem_ctrls.wrQLenPdf::36                      0                       # What write queue length does an incoming req see
system.mem_ctrls.wrQLenPdf::37                      0                       # What write queue length does an incoming req see
system.mem_ctrls.wrQLenPdf::38                      0                       # What write queue length does an incoming req see
system.mem_ctrls.wrQLenPdf::39                      0                       # What write queue length does an incoming req see
system.mem_ctrls.wrQLenPdf::40                      0                       # What write queue length does an incoming req see
system.mem_ctrls.wrQLenPdf::41                      0                       # What write queue length does an incoming req see
system.mem_ctrls.wrQLenPdf::42                      0                       # What write queue length does an incoming req see
system.mem_ctrls.wrQLenPdf::43                      0                       # What write queue length does an incoming req see
system.mem_ctrls.wrQLenPdf::44                      0                       # What write queue length does an incoming req see
system.mem_ctrls.wrQLenPdf::45                      0                       # What write queue length does an incoming req see
system.mem_ctrls.wrQLenPdf::46                      0                       # What write queue length does an incoming req see
system.mem_ctrls.wrQLenPdf::47                      0                       # What write queue length does an incoming req see
system.mem_ctrls.wrQLenPdf::48                      0                       # What write queue length does an incoming req see
system.mem_ctrls.wrQLenPdf::49                      0                       # What write queue length does an incoming req see
system.mem_ctrls.wrQLenPdf::50                      0                       # What write queue length does an incoming req see
system.mem_ctrls.wrQLenPdf::51                      0                       # What write queue length does an incoming req see
system.mem_ctrls.wrQLenPdf::52                      0                       # What write queue length does an incoming req see
system.mem_ctrls.wrQLenPdf::53                      0                       # What write queue length does an incoming req see
system.mem_ctrls.wrQLenPdf::54                      0                       # What write queue length does an incoming req see
system.mem_ctrls.wrQLenPdf::55                      0                       # What write queue length does an incoming req see
system.mem_ctrls.wrQLenPdf::56                      0                       # What write queue length does an incoming req see
system.mem_ctrls.wrQLenPdf::57                      0                       # What write queue length does an incoming req see
system.mem_ctrls.wrQLenPdf::58                      0                       # What write queue length does an incoming req see
system.mem_ctrls.wrQLenPdf::59                      0                       # What write queue length does an incoming req see
system.mem_ctrls.wrQLenPdf::60                      0                       # What write queue length does an incoming req see
system.mem_ctrls.wrQLenPdf::61                      0                       # What write queue length does an incoming req see
system.mem_ctrls.wrQLenPdf::62                      0                       # What write queue length does an incoming req see
system.mem_ctrls.wrQLenPdf::63                      0                       # What write queue length does an incoming req see
system.mem_ctrls.bytesReadDRAM                      0                       # Total number of bytes read from DRAM
system.mem_ctrls.bytesReadWrQ                       0                       # Total number of bytes read from write queue
system.mem_ctrls.bytesWritten                       0                       # Total number of bytes written to DRAM
system.mem_ctrls.bytesReadSys                       0                       # Total read bytes from the system interface side
system.mem_ctrls.bytesWrittenSys                    0                       # Total written bytes from the system interface side
system.mem_ctrls.avgRdBW                         0.00                       # Average DRAM read bandwidth in MiByte/s
system.mem_ctrls.avgWrBW                         0.00                       # Average achieved write bandwidth in MiByte/s
system.mem_ctrls.avgRdBWSys                      0.00                       # Average system read bandwidth in MiByte/s
system.mem_ctrls.avgWrBWSys                      0.00                       # Average system write bandwidth in MiByte/s
system.mem_ctrls.peakBW                      12800.00                       # Theoretical peak bandwidth in MiByte/s
system.mem_ctrls.busUtil                         0.00                       # Data bus utilization in percentage
system.mem_ctrls.busUtilRead                     0.00                       # Data bus utilization in percentage for reads
system.mem_ctrls.busUtilWrite                    0.00                       # Data bus utilization in percentage for writes
system.mem_ctrls.totGap                             0                       # Total gap between requests
system.mem_ctrls.avgGap                           nan                       # Average gap between requests
system.mem_ctrls.pageHitRate                      nan                       # Row buffer hit rate, read and write combined
system.mem_ctrls.rank1.actEnergy                    0                       # Energy for activate commands per rank (pJ)
system.mem_ctrls.rank1.preEnergy                    0                       # Energy for precharge commands per rank (pJ)
system.mem_ctrls.rank1.readEnergy                   0                       # Energy for read commands per rank (pJ)
system.mem_ctrls.rank1.writeEnergy                  0                       # Energy for write commands per rank (pJ)
system.mem_ctrls.rank1.refreshEnergy                0                       # Energy for refresh commands per rank (pJ)
system.mem_ctrls.rank1.actBackEnergy                0                       # Energy for active background per rank (pJ)
system.mem_ctrls.rank1.preBackEnergy     951337839360                       # Energy for precharge background per rank (pJ)
system.mem_ctrls.rank1.actPowerDownEnergy            0                       # Energy for active power-down per rank (pJ)
system.mem_ctrls.rank1.prePowerDownEnergy            0                       # Energy for precharge power-down per rank (pJ)
system.mem_ctrls.rank1.selfRefreshEnergy            0                       # Energy for self refresh per rank (pJ)
system.mem_ctrls.rank1.totalEnergy       951337839360                       # Total energy per rank (pJ)
system.mem_ctrls.rank1.averagePower        384.000000                       # Core power per rank (mW)
system.mem_ctrls.rank1.totalIdleTime                0                       # Total Idle time Per DRAM Rank
system.mem_ctrls.rank1.memoryStateTime::IDLE 2477442289953                       # Time in different power states
system.mem_ctrls.rank1.memoryStateTime::REF            0                       # Time in different power states
system.mem_ctrls.rank1.memoryStateTime::SREF            0                       # Time in different power states
system.mem_ctrls.rank1.memoryStateTime::PRE_PDN            0                       # Time in different power states
system.mem_ctrls.rank1.memoryStateTime::ACT            0                       # Time in different power states
system.mem_ctrls.rank1.memoryStateTime::ACT_PDN            0                       # Time in different power states
system.mem_ctrls.rank0.actEnergy                    0                       # Energy for activate commands per rank (pJ)
system.mem_ctrls.rank0.preEnergy                    0                       # Energy for precharge commands per rank (pJ)
system.mem_ctrls.rank0.readEnergy                   0                       # Energy for read commands per rank (pJ)
system.mem_ctrls.rank0.writeEnergy                  0                       # Energy for write commands per rank (pJ)
system.mem_ctrls.rank0.refreshEnergy                0                       # Energy for refresh commands per rank (pJ)
system.mem_ctrls.rank0.actBackEnergy                0                       # Energy for active background per rank (pJ)
system.mem_ctrls.rank0.preBackEnergy     951337839360                       # Energy for precharge background per rank (pJ)
system.mem_ctrls.rank0.actPowerDownEnergy            0                       # Energy for active power-down per rank (pJ)
system.mem_ctrls.rank0.prePowerDownEnergy            0                       # Energy for precharge power-down per rank (pJ)
system.mem_ctrls.rank0.selfRefreshEnergy            0                       # Energy for self refresh per rank (pJ)
system.mem_ctrls.rank0.totalEnergy       951337839360                       # Total energy per rank (pJ)
system.mem_ctrls.rank0.averagePower        384.000000                       # Core power per rank (mW)
system.mem_ctrls.rank0.totalIdleTime                0                       # Total Idle time Per DRAM Rank
system.mem_ctrls.rank0.memoryStateTime::IDLE 2477442289953                       # Time in different power states
system.mem_ctrls.rank0.memoryStateTime::REF            0                       # Time in different power states
system.mem_ctrls.rank0.memoryStateTime::SREF            0                       # Time in different power states
system.mem_ctrls.rank0.memoryStateTime::PRE_PDN            0                       # Time in different power states
system.mem_ctrls.rank0.memoryStateTime::ACT            0                       # Time in different power states
system.mem_ctrls.rank0.memoryStateTime::ACT_PDN            0                       # Time in different power states
system.cpu_clk_domain.clock                       417                       # Clock period in ticks
system.cpu.numPwrStateTransitions                   1                       # Number of power state transitions
system.cpu.pwrStateResidencyTicks::ON    2477442289953                       # Cumulative time (in ticks) in various power states
system.cpu.icache.pwrStateResidencyTicks::UNDEFINED 2477442289953                       # Cumulative time (in ticks) in various power states
system.cpu.icache.demand_hits::.cpu.inst   3356834613                       # number of demand (read+write) hits
system.cpu.icache.demand_hits::total       3356834613                       # number of demand (read+write) hits
system.cpu.icache.overall_hits::.cpu.inst   3356834613                       # number of overall hits
system.cpu.icache.overall_hits::total      3356834613                       # number of overall hits
system.cpu.icache.demand_misses::.cpu.inst     19329165                       # number of demand (read+write) misses
system.cpu.icache.demand_misses::total       19329165                       # number of demand (read+write) misses
system.cpu.icache.overall_misses::.cpu.inst     19329165                       # number of overall misses
system.cpu.icache.overall_misses::total      19329165                       # number of overall misses
system.cpu.icache.demand_accesses::.cpu.inst   3376163778                       # number of demand (read+write) accesses
system.cpu.icache.demand_accesses::total   3376163778                       # number of demand (read+write) accesses
system.cpu.icache.overall_accesses::.cpu.inst   3376163778                       # number of overall (read+write) accesses
system.cpu.icache.overall_accesses::total   3376163778                       # number of overall (read+write) accesses
system.cpu.icache.demand_miss_rate::.cpu.inst     0.005725                       # miss rate for demand accesses
system.cpu.icache.demand_miss_rate::total     0.005725                       # miss rate for demand accesses
system.cpu.icache.overall_miss_rate::.cpu.inst     0.005725                       # miss rate for overall accesses
system.cpu.icache.overall_miss_rate::total     0.005725                       # miss rate for overall accesses
system.cpu.icache.blocked_cycles::no_mshrs            0                       # number of cycles access was blocked
system.cpu.icache.blocked_cycles::no_targets            0                       # number of cycles access was blocked
system.cpu.icache.blocked::no_mshrs                 0                       # number of cycles access was blocked
system.cpu.icache.blocked::no_targets               0                       # number of cycles access was blocked
system.cpu.icache.avg_blocked_cycles::no_mshrs          nan                       # average number of cycles each access was blocked
system.cpu.icache.avg_blocked_cycles::no_targets          nan                       # average number of cycles each access was blocked
system.cpu.icache.writebacks::.writebacks     19328653                       # number of writebacks
system.cpu.icache.writebacks::total          19328653                       # number of writebacks
system.cpu.icache.replacements               19328653                       # number of replacements
system.cpu.icache.ReadReq_hits::.cpu.inst   3356834613                       # number of ReadReq hits
system.cpu.icache.ReadReq_hits::total      3356834613                       # number of ReadReq hits
system.cpu.icache.ReadReq_misses::.cpu.inst     19329165                       # number of ReadReq misses
system.cpu.icache.ReadReq_misses::total      19329165                       # number of ReadReq misses
system.cpu.icache.ReadReq_accesses::.cpu.inst   3376163778                       # number of ReadReq accesses(hits+misses)
system.cpu.icache.ReadReq_accesses::total   3376163778                       # number of ReadReq accesses(hits+misses)
system.cpu.icache.ReadReq_miss_rate::.cpu.inst     0.005725                       # miss rate for ReadReq accesses
system.cpu.icache.ReadReq_miss_rate::total     0.005725                       # miss rate for ReadReq accesses
system.cpu.icache.tags.pwrStateResidencyTicks::UNDEFINED 2477442289953                       # Cumulative time (in ticks) in various power states
system.cpu.icache.tags.tagsinuse           511.956824                       # Cycle average of tags in use
system.cpu.icache.tags.total_refs          3376163778                       # Total number of references to valid blocks.
system.cpu.icache.tags.sampled_refs          19329165                       # Sample count of references to valid blocks.
system.cpu.icache.tags.avg_refs            174.666820                       # Average number of references to valid blocks.
system.cpu.icache.tags.warmup_cycle                 0                       # Cycle when the warmup percentage was hit.
system.cpu.icache.tags.occ_blocks::.cpu.inst   511.956824                       # Average occupied blocks per requestor
system.cpu.icache.tags.occ_percent::.cpu.inst     0.999916                       # Average percentage of cache occupancy
system.cpu.icache.tags.occ_percent::total     0.999916                       # Average percentage of cache occupancy
system.cpu.icache.tags.occ_task_id_blocks::1024          512                       # Occupied blocks per task id
system.cpu.icache.tags.age_task_id_blocks_1024::0          143                       # Occupied blocks per task id
system.cpu.icache.tags.age_task_id_blocks_1024::1          104                       # Occupied blocks per task id
system.cpu.icache.tags.age_task_id_blocks_1024::4          265                       # Occupied blocks per task id
system.cpu.icache.tags.occ_task_id_percent::1024            1                       # Percentage of cache occupancy per task id
system.cpu.icache.tags.tag_accesses        6771656721                       # Number of tag accesses
system.cpu.icache.tags.data_accesses       6771656721                       # Number of data accesses
system.cpu.dtb.walker.pwrStateResidencyTicks::UNDEFINED 2477442289953                       # Cumulative time (in ticks) in various power states
system.cpu.interrupts.clk_domain.clock           6672                       # Clock period in ticks
system.cpu.itb_walker_cache.pwrStateResidencyTicks::UNDEFINED 2477442289953                       # Cumulative time (in ticks) in various power states
system.cpu.itb_walker_cache.blocked_cycles::no_mshrs            0                       # number of cycles access was blocked
system.cpu.itb_walker_cache.blocked_cycles::no_targets            0                       # number of cycles access was blocked
system.cpu.itb_walker_cache.blocked::no_mshrs            0                       # number of cycles access was blocked
system.cpu.itb_walker_cache.blocked::no_targets            0                       # number of cycles access was blocked
system.cpu.itb_walker_cache.avg_blocked_cycles::no_mshrs          nan                       # average number of cycles each access was blocked
system.cpu.itb_walker_cache.avg_blocked_cycles::no_targets          nan                       # average number of cycles each access was blocked
system.cpu.itb_walker_cache.replacements            0                       # number of replacements
system.cpu.itb_walker_cache.tags.pwrStateResidencyTicks::UNDEFINED 2477442289953                       # Cumulative time (in ticks) in various power states
system.cpu.itb_walker_cache.tags.tagsinuse            0                       # Cycle average of tags in use
system.cpu.itb_walker_cache.tags.total_refs            0                       # Total number of references to valid blocks.
system.cpu.itb_walker_cache.tags.sampled_refs            0                       # Sample count of references to valid blocks.
system.cpu.itb_walker_cache.tags.avg_refs          nan                       # Average number of references to valid blocks.
system.cpu.itb_walker_cache.tags.warmup_cycle            0                       # Cycle when the warmup percentage was hit.
system.cpu.itb_walker_cache.tags.tag_accesses            0                       # Number of tag accesses
system.cpu.itb_walker_cache.tags.data_accesses            0                       # Number of data accesses
system.cpu.itb.walker.pwrStateResidencyTicks::UNDEFINED 2477442289953                       # Cumulative time (in ticks) in various power states
system.cpu.dtb_walker_cache.pwrStateResidencyTicks::UNDEFINED 2477442289953                       # Cumulative time (in ticks) in various power states
system.cpu.dtb_walker_cache.blocked_cycles::no_mshrs            0                       # number of cycles access was blocked
system.cpu.dtb_walker_cache.blocked_cycles::no_targets            0                       # number of cycles access was blocked
system.cpu.dtb_walker_cache.blocked::no_mshrs            0                       # number of cycles access was blocked
system.cpu.dtb_walker_cache.blocked::no_targets            0                       # number of cycles access was blocked
system.cpu.dtb_walker_cache.avg_blocked_cycles::no_mshrs          nan                       # average number of cycles each access was blocked
system.cpu.dtb_walker_cache.avg_blocked_cycles::no_targets          nan                       # average number of cycles each access was blocked
system.cpu.dtb_walker_cache.replacements            0                       # number of replacements
system.cpu.dtb_walker_cache.tags.pwrStateResidencyTicks::UNDEFINED 2477442289953                       # Cumulative time (in ticks) in various power states
system.cpu.dtb_walker_cache.tags.tagsinuse            0                       # Cycle average of tags in use
system.cpu.dtb_walker_cache.tags.total_refs            0                       # Total number of references to valid blocks.
system.cpu.dtb_walker_cache.tags.sampled_refs            0                       # Sample count of references to valid blocks.
system.cpu.dtb_walker_cache.tags.avg_refs          nan                       # Average number of references to valid blocks.
system.cpu.dtb_walker_cache.tags.warmup_cycle            0                       # Cycle when the warmup percentage was hit.
system.cpu.dtb_walker_cache.tags.tag_accesses            0                       # Number of tag accesses
system.cpu.dtb_walker_cache.tags.data_accesses            0                       # Number of data accesses
system.cpu.dcache.pwrStateResidencyTicks::UNDEFINED 2477442289953                       # Cumulative time (in ticks) in various power states
system.cpu.dcache.demand_hits::.cpu.data   1266115955                       # number of demand (read+write) hits
system.cpu.dcache.demand_hits::total       1266115955                       # number of demand (read+write) hits
system.cpu.dcache.overall_hits::.cpu.data   1266115955                       # number of overall hits
system.cpu.dcache.overall_hits::total      1266115955                       # number of overall hits
system.cpu.dcache.demand_misses::.cpu.data      6351100                       # number of demand (read+write) misses
system.cpu.dcache.demand_misses::total        6351100                       # number of demand (read+write) misses
system.cpu.dcache.overall_misses::.cpu.data      6351100                       # number of overall misses
system.cpu.dcache.overall_misses::total       6351100                       # number of overall misses
system.cpu.dcache.demand_accesses::.cpu.data   1272467055                       # number of demand (read+write) accesses
system.cpu.dcache.demand_accesses::total   1272467055                       # number of demand (read+write) accesses
system.cpu.dcache.overall_accesses::.cpu.data   1272467055                       # number of overall (read+write) accesses
system.cpu.dcache.overall_accesses::total   1272467055                       # number of overall (read+write) accesses
system.cpu.dcache.demand_miss_rate::.cpu.data     0.004991                       # miss rate for demand accesses
system.cpu.dcache.demand_miss_rate::total     0.004991                       # miss rate for demand accesses
system.cpu.dcache.overall_miss_rate::.cpu.data     0.004991                       # miss rate for overall accesses
system.cpu.dcache.overall_miss_rate::total     0.004991                       # miss rate for overall accesses
system.cpu.dcache.blocked_cycles::no_mshrs            0                       # number of cycles access was blocked
system.cpu.dcache.blocked_cycles::no_targets            0                       # number of cycles access was blocked
system.cpu.dcache.blocked::no_mshrs                 0                       # number of cycles access was blocked
system.cpu.dcache.blocked::no_targets               0                       # number of cycles access was blocked
system.cpu.dcache.avg_blocked_cycles::no_mshrs          nan                       # average number of cycles each access was blocked
system.cpu.dcache.avg_blocked_cycles::no_targets          nan                       # average number of cycles each access was blocked
system.cpu.dcache.writebacks::.writebacks      2163255                       # number of writebacks
system.cpu.dcache.writebacks::total           2163255                       # number of writebacks
system.cpu.dcache.replacements                6350588                       # number of replacements
system.cpu.dcache.ReadReq_hits::.cpu.data    803509969                       # number of ReadReq hits
system.cpu.dcache.ReadReq_hits::total       803509969                       # number of ReadReq hits
system.cpu.dcache.ReadReq_misses::.cpu.data      5737535                       # number of ReadReq misses
system.cpu.dcache.ReadReq_misses::total       5737535                       # number of ReadReq misses
system.cpu.dcache.ReadReq_accesses::.cpu.data    809247504                       # number of ReadReq accesses(hits+misses)
system.cpu.dcache.ReadReq_accesses::total    809247504                       # number of ReadReq accesses(hits+misses)
system.cpu.dcache.ReadReq_miss_rate::.cpu.data     0.007090                       # miss rate for ReadReq accesses
system.cpu.dcache.ReadReq_miss_rate::total     0.007090                       # miss rate for ReadReq accesses
system.cpu.dcache.WriteReq_hits::.cpu.data    462605986                       # number of WriteReq hits
system.cpu.dcache.WriteReq_hits::total      462605986                       # number of WriteReq hits
system.cpu.dcache.WriteReq_misses::.cpu.data       613565                       # number of WriteReq misses
system.cpu.dcache.WriteReq_misses::total       613565                       # number of WriteReq misses
system.cpu.dcache.WriteReq_accesses::.cpu.data    463219551                       # number of WriteReq accesses(hits+misses)
system.cpu.dcache.WriteReq_accesses::total    463219551                       # number of WriteReq accesses(hits+misses)
system.cpu.dcache.WriteReq_miss_rate::.cpu.data     0.001325                       # miss rate for WriteReq accesses
system.cpu.dcache.WriteReq_miss_rate::total     0.001325                       # miss rate for WriteReq accesses
system.cpu.dcache.tags.pwrStateResidencyTicks::UNDEFINED 2477442289953                       # Cumulative time (in ticks) in various power states
system.cpu.dcache.tags.tagsinuse           511.995191                       # Cycle average of tags in use
system.cpu.dcache.tags.total_refs          1272467055                       # Total number of references to valid blocks.
system.cpu.dcache.tags.sampled_refs           6351100                       # Sample count of references to valid blocks.
system.cpu.dcache.tags.avg_refs            200.353806                       # Average number of references to valid blocks.
system.cpu.dcache.tags.warmup_cycle              1251                       # Cycle when the warmup percentage was hit.
system.cpu.dcache.tags.occ_blocks::.cpu.data   511.995191                       # Average occupied blocks per requestor
system.cpu.dcache.tags.occ_percent::.cpu.data     0.999991                       # Average percentage of cache occupancy
system.cpu.dcache.tags.occ_percent::total     0.999991                       # Average percentage of cache occupancy
system.cpu.dcache.tags.occ_task_id_blocks::1024          512                       # Occupied blocks per task id
system.cpu.dcache.tags.age_task_id_blocks_1024::0          280                       # Occupied blocks per task id
system.cpu.dcache.tags.age_task_id_blocks_1024::1          223                       # Occupied blocks per task id
system.cpu.dcache.tags.age_task_id_blocks_1024::2            9                       # Occupied blocks per task id
system.cpu.dcache.tags.occ_task_id_percent::1024            1                       # Percentage of cache occupancy per task id
system.cpu.dcache.tags.tag_accesses        2551285210                       # Number of tag accesses
system.cpu.dcache.tags.data_accesses       2551285210                       # Number of data accesses

---------- End Simulation Statistics   ----------
